xflr5 v6.61

Rev 6
T1-12.1 m/s-VLM2-9.1kg-x-0.1m
QInf  =   12.120000 m/s
Alpha =    4.500000
Beta  =    0.000°
Phi   =    0.000°
Ctrl  =    0.000
CL    =    1.283901
Cy    =   -0.000000
Cd    =    0.051101     ICd   =    0.022148     PCd   =    0.028954
Cl   = -1.31251e-13
Cm   =    -1.04922
ICn   =   -0.000000     PCn   =    0.000000 
XCP   =    0.093205     YCP   =    0.000000     ZCP   =    0.029951  
XNP   =    0.000000
Bending =  109.061761

Main Wing
  y-span        Chord      Ai         Cl        PCd          ICd        CmGeom    CmAirf@chord/4    XTrtop    XTrBot      XCP       BM
   -2.9798     0.1557    -4.445    0.526079    0.014087    0.040878   -0.598554   -0.047132     0.8622    1.0000    0.3377    0.0000
   -2.9371     0.1587    -3.336    0.841080    0.012810    0.049021   -0.944015   -0.071827     0.6458    1.0000    0.3335    0.0068
   -2.8534     0.1645    -2.271    1.058993    0.019143    0.042004   -1.152185   -0.085677     0.2136    1.0000    0.3290    0.0845
   -2.7318     0.1729    -1.538    1.182336    0.025210    0.031749   -1.235831   -0.091599     0.1101    1.0000    0.3256    0.3950
   -2.5771     0.1836    -1.108    1.247446    0.029056    0.024135   -1.246326   -0.093996     0.0770    1.0000    0.3234    1.1877
   -2.3952     0.1961    -0.878    1.280563    0.031116    0.019617   -1.220049   -0.094990     0.0623    1.0000    0.3222    2.7578
   -2.1931     0.2101    -0.766    1.296363    0.031666    0.017328   -1.177802   -0.095409     0.0547    1.0000    0.3217    5.3893
   -1.9785     0.2249    -0.725    1.302477    0.031714    0.016473   -1.130523   -0.095570     0.0505    1.0000    0.3214    9.2908
   -1.7597     0.2401    -0.727    1.302850    0.030226    0.016529   -1.084059   -0.095598     0.0490    1.0000    0.3214   14.5320
   -1.5451     0.2549    -0.757    1.299591    0.028736    0.017178   -1.041040   -0.095544     0.0488    1.0000    0.3216   20.9952
   -1.3430     0.2689    -0.807    1.293919    0.027427    0.018230   -1.002804   -0.095422     0.0489    1.0000    0.3218   28.3520
   -1.1611     0.2814    -0.872    1.286690    0.026831    0.019587   -0.969939   -0.095232     0.0496    1.0000    0.3221   36.0777
   -1.0064     0.2921    -0.950    1.278718    0.025245    0.021216   -0.942730   -0.094955     0.0527    1.0000    0.3223   43.5047
   -0.8848     0.3005    -1.040    1.271014    0.023703    0.023089   -0.921433   -0.094548     0.0558    1.0000    0.3225   49.9093
   -0.8011     0.3063    -1.138    1.264906    0.023263    0.025140   -0.906572   -0.093971     0.0571    1.0000    0.3224   54.6179
   -0.7584     0.3093    -1.237    1.262000    0.023100    0.027255   -0.899127   -0.093462     0.0576    1.0000    0.3221   57.1112
   -0.7119     0.3100    -1.180    1.266574    0.023195    0.026090   -0.901788   -0.094144     0.0564    1.0000    0.3223   59.8656
   -0.5828     0.3100    -1.075    1.275513    0.023567    0.023932   -0.908533   -0.095178     0.0539    1.0000    0.3226   67.8554
   -0.3738     0.3100    -1.015    1.283195    0.024487    0.022727   -0.913860   -0.095567     0.0509    1.0000    0.3225   82.1776
   -0.1648     0.3100    -0.988    1.286719    0.024910    0.022180   -0.916235   -0.095677     0.0496    1.0000    0.3224   98.2338
   -0.0357     0.3100    -0.982    1.287336    0.024985    0.022060   -0.916645   -0.095691     0.0493    1.0000    0.3223   109.0264
    0.0357     0.3100    -0.982    1.287336    0.024985    0.022060   -0.916645   -0.095691     0.0493    1.0000    0.3223   109.0618
    0.1648     0.3100    -0.988    1.286719    0.024910    0.022180   -0.916235   -0.095677     0.0496    1.0000    0.3224   98.2691
    0.3738     0.3100    -1.015    1.283195    0.024487    0.022727   -0.913860   -0.095567     0.0509    1.0000    0.3225   82.2129
    0.5828     0.3100    -1.075    1.275513    0.023567    0.023932   -0.908533   -0.095178     0.0539    1.0000    0.3226   67.8907
    0.7119     0.3100    -1.180    1.266574    0.023195    0.026090   -0.901788   -0.094144     0.0564    1.0000    0.3223   59.9009
    0.7584     0.3093    -1.237    1.262000    0.023100    0.027255   -0.899127   -0.093462     0.0576    1.0000    0.3221   57.1422
    0.8011     0.3063    -1.138    1.264906    0.023263    0.025140   -0.906572   -0.093971     0.0571    1.0000    0.3224   54.6405
    0.8848     0.3005    -1.040    1.271014    0.023703    0.023089   -0.921433   -0.094548     0.0558    1.0000    0.3225   49.9242
    1.0064     0.2921    -0.950    1.278718    0.025245    0.021216   -0.942730   -0.094955     0.0527    1.0000    0.3223   43.5132
    1.1611     0.2814    -0.872    1.286690    0.026831    0.019587   -0.969939   -0.095232     0.0496    1.0000    0.3221   36.0812
    1.3430     0.2689    -0.807    1.293919    0.027427    0.018230   -1.002804   -0.095422     0.0489    1.0000    0.3218   28.3520
    1.5451     0.2549    -0.757    1.299591    0.028736    0.017178   -1.041040   -0.095544     0.0488    1.0000    0.3216   20.9932
    1.7597     0.2401    -0.727    1.302850    0.030226    0.016529   -1.084059   -0.095598     0.0490    1.0000    0.3214   14.5292
    1.9785     0.2249    -0.725    1.302477    0.031714    0.016473   -1.130523   -0.095570     0.0505    1.0000    0.3214    9.2879
    2.1931     0.2101    -0.766    1.296363    0.031666    0.017328   -1.177802   -0.095409     0.0547    1.0000    0.3217    5.3869
    2.3952     0.1961    -0.878    1.280563    0.031116    0.019617   -1.220049   -0.094990     0.0623    1.0000    0.3222    2.7561
    2.5771     0.1836    -1.108    1.247446    0.029056    0.024135   -1.246326   -0.093996     0.0770    1.0000    0.3234    1.1867
    2.7318     0.1729    -1.538    1.182336    0.025210    0.031749   -1.235831   -0.091599     0.1101    1.0000    0.3256    0.3945
    2.8534     0.1645    -2.271    1.058993    0.019143    0.042004   -1.152185   -0.085677     0.2136    1.0000    0.3290    0.0843
    2.9371     0.1587    -3.336    0.841080    0.012810    0.049021   -0.944015   -0.071827     0.6458    1.0000    0.3335    0.0068
    2.9798     0.1557    -4.445    0.526079    0.014087    0.040878   -0.598554   -0.047132     0.8622    1.0000    0.3377    0.0000


Horizontal Stabilizer
  y-span        Chord      Ai         Cl        PCd          ICd        CmGeom    CmAirf@chord/4    XTrtop    XTrBot      XCP       BM
   -0.7457     0.1250    -1.221    0.019192    0.013541    0.000409   -0.146220    0.000719     0.9944    1.0000    0.2126    0.0000
   -0.7382     0.1250    -1.204    0.032695    0.013623    0.000687   -0.272623    0.001051     0.9916    1.0000    0.2179    0.0000
   -0.7232     0.1250    -1.177    0.045889    0.013701    0.000943   -0.396457    0.001050     0.9888    1.0000    0.2271    0.0001
   -0.7011     0.1250    -1.145    0.057356    0.013768    0.001146   -0.504359    0.000778     0.9864    1.0000    0.2364    0.0004
   -0.6723     0.1250    -1.109    0.066751    0.013823    0.001292   -0.592910    0.000403     0.9844    1.0000    0.2439    0.0013
   -0.6375     0.1250    -1.073    0.074122    0.013866    0.001389   -0.662446    0.000053     0.9829    1.0000    0.2493    0.0032
   -0.5973     0.1250    -1.042    0.079752    0.013881    0.001450   -0.715607   -0.000219     0.9816    1.0000    0.2527    0.0067
   -0.5525     0.1250    -1.015    0.084005    0.013878    0.001488   -0.755781   -0.000413     0.9806    1.0000    0.2549    0.0123
   -0.5041     0.1250    -0.993    0.087222    0.013876    0.001511   -0.786154   -0.000545     0.9798    1.0000    0.2562    0.0205
   -0.4531     0.1250    -0.975    0.089676    0.013875    0.001526   -0.809320   -0.000632     0.9792    1.0000    0.2570    0.0316
   -0.4004     0.1250    -0.961    0.091568    0.013874    0.001536   -0.827166   -0.000690     0.9787    1.0000    0.2575    0.0458
   -0.3472     0.1250    -0.950    0.093034    0.013873    0.001543   -0.840982   -0.000729     0.9784    1.0000    0.2578    0.0632
   -0.2946     0.1250    -0.941    0.094164    0.013872    0.001547   -0.851629   -0.000754     0.9781    1.0000    0.2580    0.0832
   -0.2435     0.1250    -0.935    0.095020    0.013872    0.001551   -0.859701   -0.000771     0.9779    1.0000    0.2581    0.1055
   -0.1951     0.1250    -0.930    0.095652    0.013872    0.001553   -0.865647   -0.000782     0.9777    1.0000    0.2581    0.1292
   -0.1504     0.1250    -0.927    0.096097    0.013871    0.001555   -0.869842   -0.000789     0.9776    1.0000    0.2582    0.1534
   -0.1102     0.1250    -0.925    0.096393    0.013871    0.001556   -0.872628   -0.000794     0.9775    1.0000    0.2582    0.1769
   -0.0753     0.1250    -0.923    0.096573    0.013871    0.001556   -0.874328   -0.000796     0.9775    1.0000    0.2582    0.1988
   -0.0466     0.1250    -0.923    0.096671    0.013871    0.001557   -0.875247   -0.000798     0.9775    1.0000    0.2582    0.2178
   -0.0245     0.1250    -0.922    0.096715    0.013871    0.001557   -0.875657   -0.000799     0.9775    1.0000    0.2582    0.2331
   -0.0095     0.1250    -0.922    0.096728    0.013871    0.001557   -0.875788   -0.000799     0.9774    1.0000    0.2582    0.2437
   -0.0019     0.1250    -0.922    0.096730    0.013871    0.001557   -0.875806   -0.000799     0.9774    1.0000    0.2582    0.2492
    0.0019     0.1250    -0.922    0.096730    0.013871    0.001557   -0.875806   -0.000799     0.9774    1.0000    0.2582    0.2492
    0.0095     0.1250    -0.922    0.096728    0.013871    0.001557   -0.875788   -0.000799     0.9774    1.0000    0.2582    0.2437
    0.0245     0.1250    -0.922    0.096715    0.013871    0.001557   -0.875657   -0.000799     0.9775    1.0000    0.2582    0.2331
    0.0466     0.1250    -0.923    0.096671    0.013871    0.001557   -0.875247   -0.000798     0.9775    1.0000    0.2582    0.2178
    0.0753     0.1250    -0.923    0.096573    0.013871    0.001556   -0.874328   -0.000796     0.9775    1.0000    0.2582    0.1988
    0.1102     0.1250    -0.925    0.096393    0.013871    0.001556   -0.872628   -0.000794     0.9775    1.0000    0.2582    0.1769
    0.1504     0.1250    -0.927    0.096097    0.013871    0.001555   -0.869842   -0.000789     0.9776    1.0000    0.2582    0.1534
    0.1951     0.1250    -0.930    0.095652    0.013872    0.001553   -0.865647   -0.000782     0.9777    1.0000    0.2581    0.1292
    0.2435     0.1250    -0.935    0.095020    0.013872    0.001551   -0.859701   -0.000771     0.9779    1.0000    0.2581    0.1055
    0.2946     0.1250    -0.941    0.094164    0.013872    0.001547   -0.851629   -0.000754     0.9781    1.0000    0.2580    0.0832
    0.3472     0.1250    -0.950    0.093034    0.013873    0.001543   -0.840982   -0.000729     0.9784    1.0000    0.2578    0.0632
    0.4004     0.1250    -0.961    0.091568    0.013874    0.001536   -0.827166   -0.000690     0.9787    1.0000    0.2575    0.0458
    0.4531     0.1250    -0.975    0.089676    0.013875    0.001526   -0.809320   -0.000632     0.9792    1.0000    0.2570    0.0316
    0.5041     0.1250    -0.993    0.087222    0.013876    0.001511   -0.786154   -0.000545     0.9798    1.0000    0.2562    0.0205
    0.5525     0.1250    -1.015    0.084005    0.013878    0.001488   -0.755781   -0.000413     0.9806    1.0000    0.2549    0.0123
    0.5973     0.1250    -1.042    0.079752    0.013881    0.001450   -0.715607   -0.000219     0.9816    1.0000    0.2527    0.0067
    0.6375     0.1250    -1.073    0.074122    0.013866    0.001389   -0.662446    0.000053     0.9829    1.0000    0.2493    0.0032
    0.6723     0.1250    -1.109    0.066751    0.013823    0.001292   -0.592910    0.000403     0.9844    1.0000    0.2439    0.0013
    0.7011     0.1250    -1.145    0.057356    0.013768    0.001146   -0.504359    0.000778     0.9864    1.0000    0.2364    0.0004
    0.7232     0.1250    -1.177    0.045889    0.013701    0.000943   -0.396457    0.001050     0.9888    1.0000    0.2271    0.0001
    0.7382     0.1250    -1.204    0.032695    0.013623    0.000687   -0.272623    0.001051     0.9916    1.0000    0.2179    0.0000
    0.7457     0.1250    -1.221    0.019192    0.013541    0.000409   -0.146220    0.000719     0.9944    1.0000    0.2126    0.0000


Vertical Stabilizer (XFLR5)
  y-span        Chord      Ai         Cl        PCd          ICd        CmGeom    CmAirf@chord/4    XTrtop    XTrBot      XCP       BM
   -0.3989     0.1254     0.000    0.000000    0.013412   -0.000000    0.032938    0.000000     1.0000    0.9985   -0.0782    0.0000
   -0.3948     0.1269     0.000    0.000000    0.013351   -0.000000    0.031974    0.000000     1.0000    0.9985    0.1239    0.0000
   -0.3868     0.1299     0.000    0.000000    0.013230   -0.000000    0.030142    0.000000     1.0000    0.9987    0.1922    0.0000
   -0.3750     0.1343     0.000    0.000000    0.013052   -0.000000    0.027618    0.000000     1.0000    0.9989    0.2223    0.0000
   -0.3596     0.1401     0.000    0.000000    0.012820   -0.000000    0.024616    0.000000     1.0000    0.9991    0.2366    0.0000
   -0.3410     0.1471     0.000    0.000000    0.012539   -0.000000    0.021360    0.000000     1.0000    0.9994    0.2431    0.0000
   -0.3195     0.1551     0.000    0.000000    0.012215   -0.000000    0.018049    0.000000     1.0000    0.9998    0.2454    0.0000
   -0.2955     0.1641     0.000    0.000000    0.011906   -0.000000    0.014910    0.000000     1.0000    1.0000    0.2455    0.0000
   -0.2696     0.1738     0.000    0.000000    0.011670   -0.000000    0.012078    0.000000     1.0000    1.0000    0.2445    0.0000
   -0.2423     0.1841     0.000    0.000000    0.011436   -0.000000    0.009496    0.000000     1.0000    1.0000    0.2428    0.0000
   -0.2142     0.1946     0.000    0.000000    0.011221   -0.000000    0.007203    0.000000     1.0000    1.0000    0.2404    0.0000
   -0.1857     0.2053     0.000    0.000000    0.011021   -0.000000    0.005194    0.000000     1.0000    1.0000    0.2376    0.0000
   -0.1576     0.2158     0.000    0.000000    0.010810   -0.000000    0.003447    0.000000     0.9970    0.9970    0.2343    0.0000
   -0.1302     0.2261     0.000    0.000000    0.010570   -0.000000    0.001953    0.000000     0.9903    0.9903    0.2302    0.0000
   -0.1044     0.2358     0.000    0.000000    0.010321   -0.000000    0.000706    0.000000     0.9838    0.9838    0.2255    0.0000
   -0.0804     0.2447     0.000    0.000000    0.010103   -0.000000   -0.000313    0.000000     0.9792    0.9792    0.2199   -0.0000
   -0.0589     0.2528     0.000    0.000000    0.009891   -0.000000   -0.001130    0.000000     0.9744    0.9744    0.2139   -0.0000
   -0.0403     0.2598     0.000    0.000000    0.009711   -0.000000   -0.001770    0.000000     0.9708    0.9707    0.2073   -0.0000
   -0.0249     0.2656     0.000    0.000000    0.009565   -0.000000   -0.002255    0.000000     0.9682    0.9682    0.2007   -0.0000
   -0.0131     0.2700     0.000    0.000000    0.009453   -0.000000   -0.002602    0.000000     0.9664    0.9664    0.1937   -0.0000
   -0.0051     0.2730     0.000    0.000000    0.009380   -0.000000   -0.002826    0.000000     0.9653    0.9653    0.1875   -0.0000
   -0.0010     0.2745     0.000    0.000000    0.009343   -0.000000   -0.002936    0.000000     0.9648    0.9648    0.1845   -0.0000


Main Wing Cp Coefficients
 Panel     CtrlPt.x        CtrlPt.y        CtrlPt.z       Nx      Ny       Nz        Area       Cp
Main WingCp Coefficients
Strip 1
   0       1.545e-01      -2.979e+00       6.771e-02           0.212           0.024           0.977       6.929e-05          0.1737
   1       1.499e-01      -2.979e+00       6.868e-02           0.197           0.025           0.980       2.016e-04          0.2415
   2       1.394e-01      -2.979e+00       7.069e-02           0.173           0.027           0.985       3.163e-04          0.2789
   3       1.239e-01      -2.979e+00       7.331e-02           0.152           0.028           0.988       4.049e-04          0.3306
   4       1.046e-01      -2.978e+00       7.611e-02           0.125           0.030           0.992       4.601e-04          0.3799
   5       8.324e-02      -2.978e+00       7.864e-02           0.095           0.031           0.995       4.779e-04          0.4270
   6       6.139e-02      -2.978e+00       8.057e-02           0.066           0.032           0.997       4.574e-04          0.4943
   7       4.086e-02      -2.978e+00       8.178e-02           0.036           0.032           0.999       4.004e-04          0.6118
   8       2.331e-02      -2.978e+00       8.226e-02          -0.003           0.033           0.999       3.115e-04          0.8093
   9       1.018e-02      -2.978e+00       8.211e-02          -0.055           0.033           0.998       1.979e-04          1.2008
  10       2.514e-03      -2.978e+00       8.159e-02          -0.178           0.033           0.984       6.880e-05          1.9324
Strip 2
  11       1.574e-01      -2.936e+00       6.603e-02           0.212           0.024           0.977       2.091e-04          0.2205
  12       1.527e-01      -2.936e+00       6.702e-02           0.197           0.025           0.980       6.084e-04          0.3355
  13       1.420e-01      -2.936e+00       6.907e-02           0.173           0.027           0.985       9.546e-04          0.4230
  14       1.262e-01      -2.936e+00       7.173e-02           0.152           0.028           0.988       1.222e-03          0.5206
  15       1.066e-01      -2.936e+00       7.459e-02           0.125           0.030           0.992       1.388e-03          0.6125
  16       8.482e-02      -2.936e+00       7.717e-02           0.095           0.031           0.995       1.442e-03          0.7019
  17       6.255e-02      -2.936e+00       7.913e-02           0.066           0.032           0.997       1.380e-03          0.8179
  18       4.163e-02      -2.936e+00       8.036e-02           0.036           0.032           0.999       1.208e-03          0.9965
  19       2.376e-02      -2.936e+00       8.086e-02          -0.003           0.033           0.999       9.401e-04          1.2753
  20       1.037e-02      -2.936e+00       8.070e-02          -0.055           0.033           0.998       5.973e-04          1.8391
  21       2.561e-03      -2.936e+00       8.017e-02          -0.178           0.033           0.984       2.076e-04          3.2927
Strip 3
  22       1.632e-01      -2.852e+00       6.273e-02           0.212           0.024           0.977       3.519e-04          0.2522
  23       1.583e-01      -2.852e+00       6.376e-02           0.197           0.025           0.980       1.024e-03          0.3933
  24       1.472e-01      -2.852e+00       6.589e-02           0.173           0.027           0.985       1.607e-03          0.5121
  25       1.308e-01      -2.852e+00       6.865e-02           0.152           0.028           0.988       2.057e-03          0.6426
  26       1.105e-01      -2.852e+00       7.161e-02           0.125           0.030           0.992       2.337e-03          0.7674
  27       8.791e-02      -2.852e+00       7.428e-02           0.095           0.031           0.995       2.427e-03          0.8887
  28       6.483e-02      -2.852e+00       7.631e-02           0.066           0.032           0.997       2.323e-03          1.0368
  29       4.315e-02      -2.852e+00       7.759e-02           0.036           0.032           0.999       2.034e-03          1.2538
  30       2.462e-02      -2.852e+00       7.811e-02          -0.003           0.033           0.999       1.582e-03          1.5980
  31       1.075e-02      -2.852e+00       7.794e-02          -0.055           0.033           0.998       1.005e-03          2.3241
  32       2.655e-03      -2.852e+00       7.739e-02          -0.178           0.033           0.984       3.494e-04          4.3937
Strip 4
  33       1.715e-01      -2.731e+00       5.795e-02           0.212           0.024           0.977       4.978e-04          0.2696
  34       1.663e-01      -2.731e+00       5.903e-02           0.197           0.025           0.980       1.448e-03          0.4245
  35       1.547e-01      -2.731e+00       6.126e-02           0.173           0.027           0.985       2.273e-03          0.5593
  36       1.375e-01      -2.731e+00       6.416e-02           0.152           0.028           0.988       2.909e-03          0.7066
  37       1.162e-01      -2.731e+00       6.728e-02           0.125           0.030           0.992       3.305e-03          0.8486
  38       9.240e-02      -2.731e+00       7.008e-02           0.095           0.031           0.995       3.433e-03          0.9877
  39       6.814e-02      -2.731e+00       7.222e-02           0.066           0.032           0.997       3.286e-03          1.1555
  40       4.535e-02      -2.730e+00       7.357e-02           0.036           0.032           0.999       2.877e-03          1.3990
  41       2.588e-02      -2.730e+00       7.411e-02          -0.003           0.033           0.999       2.238e-03          1.7892
  42       1.130e-02      -2.730e+00       7.393e-02          -0.055           0.033           0.998       1.422e-03          2.6236
  43       2.790e-03      -2.730e+00       7.335e-02          -0.178           0.033           0.984       4.943e-04          5.0867
Strip 5
  44       1.821e-01      -2.576e+00       5.186e-02           0.212           0.024           0.977       6.441e-04          0.2784
  45       1.766e-01      -2.576e+00       5.300e-02           0.197           0.025           0.980       1.874e-03          0.4400
  46       1.643e-01      -2.576e+00       5.538e-02           0.173           0.027           0.985       2.940e-03          0.5827
  47       1.460e-01      -2.576e+00       5.846e-02           0.152           0.028           0.988       3.764e-03          0.7382
  48       1.233e-01      -2.576e+00       6.177e-02           0.125           0.030           0.992       4.277e-03          0.8890
  49       9.812e-02      -2.576e+00       6.475e-02           0.095           0.031           0.995       4.442e-03          1.0376
  50       7.236e-02      -2.576e+00       6.702e-02           0.066           0.032           0.997       4.252e-03          1.2168
  51       4.816e-02      -2.576e+00       6.844e-02           0.036           0.032           0.999       3.722e-03          1.4760
  52       2.748e-02      -2.576e+00       6.902e-02          -0.003           0.033           0.999       2.896e-03          1.8935
  53       1.200e-02      -2.576e+00       6.883e-02          -0.055           0.033           0.998       1.840e-03          2.7903
  54       2.963e-03      -2.576e+00       6.822e-02          -0.178           0.033           0.984       6.395e-04          5.4759
Strip 6
  55       1.946e-01      -2.395e+00       4.470e-02           0.212           0.024           0.977       7.851e-04          0.2827
  56       1.887e-01      -2.395e+00       4.592e-02           0.197           0.025           0.980       2.284e-03          0.4476
  57       1.755e-01      -2.394e+00       4.846e-02           0.173           0.027           0.985       3.584e-03          0.5941
  58       1.560e-01      -2.394e+00       5.175e-02           0.152           0.028           0.988       4.588e-03          0.7537
  59       1.318e-01      -2.394e+00       5.528e-02           0.125           0.030           0.992       5.213e-03          0.9088
  60       1.048e-01      -2.394e+00       5.847e-02           0.095           0.031           0.995       5.415e-03          1.0624
  61       7.731e-02      -2.394e+00       6.089e-02           0.066           0.032           0.997       5.183e-03          1.2475
  62       5.146e-02      -2.394e+00       6.242e-02           0.036           0.032           0.999       4.538e-03          1.5154
  63       2.936e-02      -2.394e+00       6.303e-02          -0.003           0.033           0.999       3.530e-03          1.9475
  64       1.282e-02      -2.394e+00       6.284e-02          -0.055           0.033           0.998       2.243e-03          2.8776
  65       3.166e-03      -2.394e+00       6.218e-02          -0.178           0.033           0.984       7.796e-04          5.6808
Strip 7
  66       2.084e-01      -2.193e+00       3.674e-02           0.212           0.024           0.977       9.126e-04          0.2846
  67       2.022e-01      -2.193e+00       3.805e-02           0.197           0.025           0.980       2.655e-03          0.4512
  68       1.880e-01      -2.192e+00       4.077e-02           0.173           0.027           0.985       4.166e-03          0.5994
  69       1.671e-01      -2.192e+00       4.430e-02           0.152           0.028           0.988       5.333e-03          0.7609
  70       1.412e-01      -2.192e+00       4.808e-02           0.125           0.030           0.992       6.060e-03          0.9181
  71       1.123e-01      -2.192e+00       5.149e-02           0.095           0.031           0.995       6.294e-03          1.0740
  72       8.282e-02      -2.192e+00       5.409e-02           0.066           0.032           0.997       6.025e-03          1.2621
  73       5.512e-02      -2.192e+00       5.572e-02           0.036           0.032           0.999       5.274e-03          1.5341
  74       3.145e-02      -2.192e+00       5.638e-02          -0.003           0.033           0.999       4.103e-03          1.9735
  75       1.373e-02      -2.192e+00       5.617e-02          -0.055           0.033           0.998       2.607e-03          2.9198
  76       3.391e-03      -2.192e+00       5.547e-02          -0.178           0.033           0.984       9.061e-04          5.7802
Strip 8
  77       2.231e-01      -1.978e+00       2.829e-02           0.212           0.024           0.977       1.016e-03          0.2854
  78       2.164e-01      -1.978e+00       2.970e-02           0.197           0.025           0.980       2.956e-03          0.4525
  79       2.013e-01      -1.978e+00       3.261e-02           0.173           0.027           0.985       4.638e-03          0.6015
  80       1.789e-01      -1.978e+00       3.638e-02           0.152           0.028           0.988       5.938e-03          0.7637
  81       1.511e-01      -1.978e+00       4.044e-02           0.125           0.030           0.992       6.746e-03          0.9217
  82       1.202e-01      -1.978e+00       4.409e-02           0.095           0.031           0.995       7.008e-03          1.0785
  83       8.866e-02      -1.978e+00       4.687e-02           0.066           0.032           0.997       6.708e-03          1.2678
  84       5.901e-02      -1.978e+00       4.862e-02           0.036           0.032           0.999       5.872e-03          1.5414
  85       3.367e-02      -1.978e+00       4.932e-02          -0.003           0.033           0.999       4.568e-03          1.9835
  86       1.470e-02      -1.978e+00       4.910e-02          -0.055           0.033           0.998       2.902e-03          2.9362
  87       3.630e-03      -1.978e+00       4.834e-02          -0.178           0.033           0.984       1.009e-03          5.8188
Strip 9
  88       2.381e-01      -1.759e+00       1.968e-02           0.212           0.024           0.977       1.084e-03          0.2855
  89       2.310e-01      -1.759e+00       2.118e-02           0.197           0.025           0.980       3.155e-03          0.4527
  90       2.148e-01      -1.759e+00       2.428e-02           0.173           0.027           0.985       4.950e-03          0.6017
  91       1.909e-01      -1.759e+00       2.831e-02           0.152           0.028           0.988       6.337e-03          0.7639
  92       1.613e-01      -1.759e+00       3.264e-02           0.125           0.030           0.992       7.200e-03          0.9219
  93       1.283e-01      -1.759e+00       3.654e-02           0.095           0.031           0.995       7.479e-03          1.0788
  94       9.462e-02      -1.759e+00       3.951e-02           0.066           0.032           0.997       7.159e-03          1.2681
  95       6.298e-02      -1.759e+00       4.137e-02           0.036           0.032           0.999       6.267e-03          1.5418
  96       3.594e-02      -1.759e+00       4.212e-02          -0.003           0.033           0.999       4.875e-03          1.9840
  97       1.569e-02      -1.759e+00       4.188e-02          -0.055           0.033           0.998       3.097e-03          2.9370
  98       3.875e-03      -1.759e+00       4.108e-02          -0.178           0.033           0.984       1.077e-03          5.8205
Strip 10
  99       2.529e-01      -1.545e+00       1.123e-02           0.212           0.024           0.977       1.107e-03          0.2852
 100       2.452e-01      -1.545e+00       1.282e-02           0.197           0.025           0.980       3.221e-03          0.4520
 101       2.281e-01      -1.545e+00       1.612e-02           0.173           0.027           0.985       5.054e-03          0.6007
 102       2.027e-01      -1.545e+00       2.040e-02           0.152           0.028           0.988       6.469e-03          0.7626
 103       1.713e-01      -1.545e+00       2.499e-02           0.125           0.030           0.992       7.351e-03          0.9201
 104       1.362e-01      -1.545e+00       2.913e-02           0.095           0.031           0.995       7.635e-03          1.0764
 105       1.005e-01      -1.545e+00       3.228e-02           0.066           0.032           0.997       7.309e-03          1.2651
 106       6.687e-02      -1.545e+00       3.427e-02           0.036           0.032           0.999       6.398e-03          1.5379
 107       3.816e-02      -1.544e+00       3.506e-02          -0.003           0.033           0.999       4.978e-03          1.9785
 108       1.666e-02      -1.544e+00       3.481e-02          -0.055           0.033           0.998       3.162e-03          2.9280
 109       4.114e-03      -1.545e+00       3.395e-02          -0.178           0.033           0.984       1.099e-03          5.7991
Strip 11
 110       2.667e-01      -1.343e+00       3.277e-03           0.212           0.024           0.977       1.076e-03          0.2845
 111       2.587e-01      -1.343e+00       4.953e-03           0.197           0.025           0.980       3.131e-03          0.4509
 112       2.406e-01      -1.343e+00       8.431e-03           0.173           0.027           0.985       4.913e-03          0.5989
 113       2.138e-01      -1.343e+00       1.295e-02           0.152           0.028           0.988       6.289e-03          0.7601
 114       1.807e-01      -1.343e+00       1.779e-02           0.125           0.030           0.992       7.146e-03          0.9168
 115       1.437e-01      -1.343e+00       2.216e-02           0.095           0.031           0.995       7.422e-03          1.0723
 116       1.060e-01      -1.343e+00       2.548e-02           0.066           0.032           0.997       7.105e-03          1.2599
 117       7.053e-02      -1.342e+00       2.757e-02           0.036           0.032           0.999       6.220e-03          1.5311
 118       4.025e-02      -1.342e+00       2.841e-02          -0.003           0.033           0.999       4.839e-03          1.9691
 119       1.757e-02      -1.342e+00       2.814e-02          -0.055           0.033           0.998       3.074e-03          2.9125
 120       4.339e-03      -1.343e+00       2.724e-02          -0.178           0.033           0.984       1.069e-03          5.7625
Strip 12
 121       2.792e-01      -1.161e+00      -3.885e-03           0.212           0.024           0.977       9.873e-04          0.2836
 122       2.708e-01      -1.161e+00      -2.130e-03           0.197           0.025           0.980       2.872e-03          0.4493
 123       2.518e-01      -1.161e+00       1.511e-03           0.173           0.027           0.985       4.507e-03          0.5965
 124       2.238e-01      -1.161e+00       6.238e-03           0.152           0.028           0.988       5.770e-03          0.7568
 125       1.891e-01      -1.161e+00       1.131e-02           0.125           0.030           0.992       6.556e-03          0.9126
 126       1.504e-01      -1.161e+00       1.588e-02           0.095           0.031           0.995       6.810e-03          1.0669
 127       1.109e-01      -1.161e+00       1.936e-02           0.066           0.032           0.997       6.519e-03          1.2531
 128       7.383e-02      -1.161e+00       2.155e-02           0.036           0.032           0.999       5.707e-03          1.5225
 129       4.213e-02      -1.161e+00       2.243e-02          -0.003           0.033           0.999       4.439e-03          1.9572
 130       1.839e-02      -1.161e+00       2.215e-02          -0.055           0.033           0.998       2.821e-03          2.8932
 131       4.542e-03      -1.161e+00       2.120e-02          -0.178           0.033           0.984       9.804e-04          5.7168
Strip 13
 132       2.898e-01      -1.007e+00      -9.975e-03           0.212           0.024           0.977       8.410e-04          0.2826
 133       2.811e-01      -1.007e+00      -8.153e-03           0.197           0.025           0.980       2.447e-03          0.4474
 134       2.614e-01      -1.006e+00      -4.374e-03           0.173           0.027           0.985       3.840e-03          0.5936
 135       2.323e-01      -1.006e+00       5.324e-04           0.152           0.028           0.988       4.915e-03          0.7529
 136       1.963e-01      -1.006e+00       5.796e-03           0.125           0.030           0.992       5.585e-03          0.9077
 137       1.561e-01      -1.006e+00       1.054e-02           0.095           0.031           0.995       5.801e-03          1.0609
 138       1.151e-01      -1.006e+00       1.415e-02           0.066           0.032           0.997       5.553e-03          1.2457
 139       7.663e-02      -1.006e+00       1.642e-02           0.036           0.032           0.999       4.861e-03          1.5130
 140       4.373e-02      -1.006e+00       1.734e-02          -0.003           0.033           0.999       3.782e-03          1.9443
 141       1.909e-02      -1.006e+00       1.704e-02          -0.055           0.033           0.998       2.403e-03          2.8725
 142       4.715e-03      -1.006e+00       1.606e-02          -0.178           0.033           0.984       8.352e-04          5.6681
Strip 14
 143       2.981e-01      -8.851e-01      -1.476e-02           0.212           0.024           0.977       6.429e-04          0.2813
 144       2.892e-01      -8.851e-01      -1.289e-02           0.197           0.025           0.980       1.870e-03          0.4452
 145       2.689e-01      -8.850e-01      -8.998e-03           0.173           0.027           0.985       2.935e-03          0.5903
 146       2.390e-01      -8.849e-01      -3.950e-03           0.152           0.028           0.988       3.757e-03          0.7487
 147       2.019e-01      -8.848e-01       1.465e-03           0.125           0.030           0.992       4.269e-03          0.9026
 148       1.606e-01      -8.847e-01       6.344e-03           0.095           0.031           0.995       4.435e-03          1.0549
 149       1.185e-01      -8.846e-01       1.006e-02           0.066           0.032           0.997       4.245e-03          1.2385
 150       7.884e-02      -8.846e-01       1.240e-02           0.036           0.032           0.999       3.716e-03          1.5042
 151       4.499e-02      -8.846e-01       1.334e-02          -0.003           0.033           0.999       2.891e-03          1.9325
 152       1.964e-02      -8.846e-01       1.304e-02          -0.055           0.033           0.998       1.837e-03          2.8536
 153       4.850e-03      -8.846e-01       1.203e-02          -0.178           0.033           0.984       6.384e-04          5.6237
Strip 15
 154       3.039e-01      -8.014e-01      -1.806e-02           0.212           0.024           0.977       4.035e-04          0.2797
 155       2.947e-01      -8.014e-01      -1.615e-02           0.197           0.025           0.980       1.174e-03          0.4424
 156       2.741e-01      -8.013e-01      -1.218e-02           0.173           0.027           0.985       1.842e-03          0.5865
 157       2.436e-01      -8.012e-01      -7.038e-03           0.152           0.028           0.988       2.358e-03          0.7443
 158       2.058e-01      -8.011e-01      -1.518e-03           0.125           0.030           0.992       2.680e-03          0.8980
 159       1.637e-01      -8.010e-01       3.455e-03           0.095           0.031           0.995       2.783e-03          1.0501
 160       1.207e-01      -8.010e-01       7.245e-03           0.066           0.032           0.997       2.664e-03          1.2333
 161       8.036e-02      -8.009e-01       9.625e-03           0.036           0.032           0.999       2.332e-03          1.4979
 162       4.585e-02      -8.009e-01       1.058e-02          -0.003           0.033           0.999       1.814e-03          1.9241
 163       2.002e-02      -8.009e-01       1.028e-02          -0.055           0.033           0.998       1.153e-03          2.8403
 164       4.944e-03      -8.009e-01       9.247e-03          -0.178           0.033           0.984       4.007e-04          5.5917
Strip 16
 165       3.068e-01      -7.588e-01      -1.974e-02           0.212           0.024           0.977       1.376e-04          0.2771
 166       2.976e-01      -7.587e-01      -1.781e-02           0.197           0.025           0.980       4.002e-04          0.4389
 167       2.767e-01      -7.587e-01      -1.381e-02           0.173           0.027           0.985       6.280e-04          0.5835
 168       2.460e-01      -7.586e-01      -8.612e-03           0.152           0.028           0.988       8.040e-04          0.7418
 169       2.078e-01      -7.585e-01      -3.039e-03           0.125           0.030           0.992       9.135e-04          0.8959
 170       1.653e-01      -7.584e-01       1.982e-03           0.095           0.031           0.995       9.489e-04          1.0481
 171       1.219e-01      -7.583e-01       5.809e-03           0.066           0.032           0.997       9.083e-04          1.2313
 172       8.113e-02      -7.583e-01       8.211e-03           0.036           0.032           0.999       7.951e-04          1.4957
 173       4.629e-02      -7.583e-01       9.178e-03          -0.003           0.033           0.999       6.186e-04          1.9213
 174       2.021e-02      -7.583e-01       8.869e-03          -0.055           0.033           0.998       3.930e-04          2.8352
 175       4.991e-03      -7.583e-01       7.830e-03          -0.178           0.033           0.984       1.366e-04          5.5763
Strip 17
 176       3.075e-01      -7.123e-01      -2.016e-02           0.212           0.000           0.977       4.571e-04          0.2796
 177       2.983e-01      -7.122e-01      -1.823e-02           0.197           0.000           0.980       1.330e-03          0.4422
 178       2.774e-01      -7.122e-01      -1.422e-02           0.173           0.000           0.985       2.087e-03          0.5866
 179       2.466e-01      -7.121e-01      -9.009e-03           0.152           0.000           0.988       2.671e-03          0.7449
 180       2.083e-01      -7.120e-01      -3.423e-03           0.125           0.000           0.992       3.034e-03          0.8991
 181       1.657e-01      -7.119e-01       1.610e-03           0.095           0.000           0.995       3.151e-03          1.0517
 182       1.222e-01      -7.119e-01       5.446e-03           0.066           0.000           0.998       3.016e-03          1.2354
 183       8.133e-02      -7.118e-01       7.855e-03           0.036          -0.000           0.999       2.640e-03          1.5005
 184       4.640e-02      -7.118e-01       8.824e-03          -0.003          -0.000           1.000       2.054e-03          1.9269
 185       2.026e-02      -7.118e-01       8.514e-03          -0.055          -0.000           0.998       1.305e-03          2.8431
 186       5.003e-03      -7.118e-01       7.472e-03          -0.178          -0.000           0.984       4.536e-04          5.5962
Strip 18
 187       3.075e-01      -5.831e-01      -2.016e-02           0.212           0.000           0.977       1.197e-03          0.2824
 188       2.983e-01      -5.830e-01      -1.823e-02           0.197           0.000           0.980       3.481e-03          0.4469
 189       2.774e-01      -5.830e-01      -1.422e-02           0.173           0.000           0.985       5.463e-03          0.5928
 190       2.466e-01      -5.829e-01      -9.010e-03           0.152           0.000           0.988       6.992e-03          0.7518
 191       2.083e-01      -5.828e-01      -3.424e-03           0.125           0.000           0.992       7.944e-03          0.9063
 192       1.657e-01      -5.828e-01       1.610e-03           0.095           0.000           0.995       8.250e-03          1.0590
 193       1.222e-01      -5.827e-01       5.446e-03           0.066           0.000           0.998       7.897e-03          1.2431
 194       8.133e-02      -5.827e-01       7.855e-03           0.036          -0.000           0.999       6.913e-03          1.5091
 195       4.640e-02      -5.827e-01       8.824e-03          -0.003          -0.000           1.000       5.378e-03          1.9381
 196       2.026e-02      -5.827e-01       8.514e-03          -0.055          -0.000           0.998       3.417e-03          2.8612
 197       5.003e-03      -5.827e-01       7.473e-03          -0.178          -0.000           0.984       1.188e-03          5.6402
Strip 19
 198       3.075e-01      -3.740e-01      -2.016e-02           0.212           0.000           0.977       1.479e-03          0.2836
 199       2.983e-01      -3.740e-01      -1.823e-02           0.197           0.000           0.980       4.303e-03          0.4491
 200       2.774e-01      -3.739e-01      -1.422e-02           0.173           0.000           0.985       6.752e-03          0.5960
 201       2.466e-01      -3.739e-01      -9.011e-03           0.152           0.000           0.988       8.643e-03          0.7560
 202       2.083e-01      -3.739e-01      -3.424e-03           0.125           0.000           0.992       9.819e-03          0.9113
 203       1.657e-01      -3.738e-01       1.610e-03           0.095           0.000           0.995       1.020e-02          1.0649
 204       1.222e-01      -3.738e-01       5.446e-03           0.066           0.000           0.998       9.761e-03          1.2501
 205       8.133e-02      -3.738e-01       7.855e-03           0.036          -0.000           0.999       8.545e-03          1.5178
 206       4.640e-02      -3.737e-01       8.824e-03          -0.003          -0.000           1.000       6.647e-03          1.9499
 207       2.026e-02      -3.737e-01       8.515e-03          -0.055          -0.000           0.998       4.223e-03          2.8802
 208       5.003e-03      -3.738e-01       7.473e-03          -0.178          -0.000           0.984       1.468e-03          5.6853
Strip 20
 209       3.075e-01      -1.649e-01      -2.016e-02           0.212           0.000           0.977       1.197e-03          0.2841
 210       2.983e-01      -1.649e-01      -1.823e-02           0.197           0.000           0.980       3.481e-03          0.4500
 211       2.774e-01      -1.649e-01      -1.422e-02           0.173           0.000           0.985       5.463e-03          0.5973
 212       2.466e-01      -1.649e-01      -9.011e-03           0.152           0.000           0.988       6.992e-03          0.7577
 213       2.083e-01      -1.649e-01      -3.425e-03           0.125           0.000           0.992       7.944e-03          0.9134
 214       1.657e-01      -1.648e-01       1.609e-03           0.095           0.000           0.995       8.250e-03          1.0675
 215       1.222e-01      -1.648e-01       5.446e-03           0.066           0.000           0.998       7.897e-03          1.2533
 216       8.133e-02      -1.648e-01       7.855e-03           0.036          -0.000           0.999       6.913e-03          1.5219
 217       4.640e-02      -1.648e-01       8.824e-03          -0.003          -0.000           1.000       5.378e-03          1.9556
 218       2.026e-02      -1.648e-01       8.515e-03          -0.055          -0.000           0.998       3.417e-03          2.8896
 219       5.003e-03      -1.648e-01       7.473e-03          -0.178          -0.000           0.984       1.188e-03          5.7075
Strip 21
 220       3.075e-01      -3.571e-02      -2.016e-02           0.212           0.000           0.977       4.571e-04          0.2842
 221       2.983e-01      -3.571e-02      -1.823e-02           0.197           0.000           0.980       1.330e-03          0.4501
 222       2.774e-01      -3.571e-02      -1.422e-02           0.173           0.000           0.985       2.087e-03          0.5975
 223       2.466e-01      -3.570e-02      -9.012e-03           0.152           0.000           0.988       2.671e-03          0.7580
 224       2.083e-01      -3.570e-02      -3.425e-03           0.125           0.000           0.992       3.034e-03          0.9138
 225       1.657e-01      -3.570e-02       1.609e-03           0.095           0.000           0.995       3.151e-03          1.0680
 226       1.222e-01      -3.569e-02       5.445e-03           0.066           0.000           0.998       3.016e-03          1.2539
 227       8.133e-02      -3.569e-02       7.855e-03           0.036          -0.000           0.999       2.640e-03          1.5226
 228       4.640e-02      -3.569e-02       8.824e-03          -0.003          -0.000           1.000       2.054e-03          1.9566
 229       2.026e-02      -3.569e-02       8.515e-03          -0.055          -0.000           0.998       1.305e-03          2.8913
 230       5.003e-03      -3.569e-02       7.473e-03          -0.178          -0.000           0.984       4.536e-04          5.7117
Strip 22
 231       3.075e-01       3.571e-02      -2.016e-02           0.212          -0.000           0.977       4.571e-04          0.2842
 232       2.983e-01       3.571e-02      -1.823e-02           0.197          -0.000           0.980       1.330e-03          0.4501
 233       2.774e-01       3.571e-02      -1.422e-02           0.173          -0.000           0.985       2.087e-03          0.5975
 234       2.466e-01       3.570e-02      -9.012e-03           0.152          -0.000           0.988       2.671e-03          0.7580
 235       2.083e-01       3.570e-02      -3.425e-03           0.125          -0.000           0.992       3.034e-03          0.9138
 236       1.657e-01       3.570e-02       1.609e-03           0.095          -0.000           0.995       3.151e-03          1.0680
 237       1.222e-01       3.569e-02       5.445e-03           0.066          -0.000           0.998       3.016e-03          1.2539
 238       8.133e-02       3.569e-02       7.855e-03           0.036           0.000           0.999       2.640e-03          1.5226
 239       4.640e-02       3.569e-02       8.824e-03          -0.003           0.000           1.000       2.054e-03          1.9566
 240       2.026e-02       3.569e-02       8.515e-03          -0.055           0.000           0.998       1.305e-03          2.8913
 241       5.003e-03       3.569e-02       7.473e-03          -0.178           0.000           0.984       4.536e-04          5.7117
Strip 23
 242       3.075e-01       1.649e-01      -2.016e-02           0.212          -0.000           0.977       1.197e-03          0.2841
 243       2.983e-01       1.649e-01      -1.823e-02           0.197          -0.000           0.980       3.481e-03          0.4500
 244       2.774e-01       1.649e-01      -1.422e-02           0.173          -0.000           0.985       5.463e-03          0.5973
 245       2.466e-01       1.649e-01      -9.011e-03           0.152          -0.000           0.988       6.992e-03          0.7577
 246       2.083e-01       1.649e-01      -3.425e-03           0.125          -0.000           0.992       7.944e-03          0.9134
 247       1.657e-01       1.648e-01       1.609e-03           0.095          -0.000           0.995       8.250e-03          1.0675
 248       1.222e-01       1.648e-01       5.446e-03           0.066          -0.000           0.998       7.897e-03          1.2533
 249       8.133e-02       1.648e-01       7.855e-03           0.036           0.000           0.999       6.913e-03          1.5219
 250       4.640e-02       1.648e-01       8.824e-03          -0.003           0.000           1.000       5.378e-03          1.9556
 251       2.026e-02       1.648e-01       8.515e-03          -0.055           0.000           0.998       3.417e-03          2.8896
 252       5.003e-03       1.648e-01       7.473e-03          -0.178           0.000           0.984       1.188e-03          5.7075
Strip 24
 253       3.075e-01       3.740e-01      -2.016e-02           0.212          -0.000           0.977       1.479e-03          0.2836
 254       2.983e-01       3.740e-01      -1.823e-02           0.197          -0.000           0.980       4.303e-03          0.4491
 255       2.774e-01       3.739e-01      -1.422e-02           0.173          -0.000           0.985       6.752e-03          0.5960
 256       2.466e-01       3.739e-01      -9.011e-03           0.152          -0.000           0.988       8.643e-03          0.7560
 257       2.083e-01       3.739e-01      -3.424e-03           0.125          -0.000           0.992       9.819e-03          0.9113
 258       1.657e-01       3.738e-01       1.610e-03           0.095          -0.000           0.995       1.020e-02          1.0649
 259       1.222e-01       3.738e-01       5.446e-03           0.066          -0.000           0.998       9.761e-03          1.2501
 260       8.133e-02       3.738e-01       7.855e-03           0.036           0.000           0.999       8.545e-03          1.5178
 261       4.640e-02       3.737e-01       8.824e-03          -0.003           0.000           1.000       6.647e-03          1.9499
 262       2.026e-02       3.737e-01       8.515e-03          -0.055           0.000           0.998       4.223e-03          2.8802
 263       5.003e-03       3.738e-01       7.473e-03          -0.178           0.000           0.984       1.468e-03          5.6853
Strip 25
 264       3.075e-01       5.831e-01      -2.016e-02           0.212          -0.000           0.977       1.197e-03          0.2824
 265       2.983e-01       5.830e-01      -1.823e-02           0.197          -0.000           0.980       3.481e-03          0.4469
 266       2.774e-01       5.830e-01      -1.422e-02           0.173          -0.000           0.985       5.463e-03          0.5928
 267       2.466e-01       5.829e-01      -9.010e-03           0.152          -0.000           0.988       6.992e-03          0.7518
 268       2.083e-01       5.828e-01      -3.424e-03           0.125          -0.000           0.992       7.944e-03          0.9063
 269       1.657e-01       5.828e-01       1.610e-03           0.095          -0.000           0.995       8.250e-03          1.0590
 270       1.222e-01       5.827e-01       5.446e-03           0.066          -0.000           0.998       7.897e-03          1.2431
 271       8.133e-02       5.827e-01       7.855e-03           0.036           0.000           0.999       6.913e-03          1.5091
 272       4.640e-02       5.827e-01       8.824e-03          -0.003           0.000           1.000       5.378e-03          1.9381
 273       2.026e-02       5.827e-01       8.514e-03          -0.055           0.000           0.998       3.417e-03          2.8612
 274       5.003e-03       5.827e-01       7.473e-03          -0.178           0.000           0.984       1.188e-03          5.6402
Strip 26
 275       3.075e-01       7.123e-01      -2.016e-02           0.212          -0.000           0.977       4.571e-04          0.2796
 276       2.983e-01       7.122e-01      -1.823e-02           0.197          -0.000           0.980       1.330e-03          0.4422
 277       2.774e-01       7.122e-01      -1.422e-02           0.173          -0.000           0.985       2.087e-03          0.5866
 278       2.466e-01       7.121e-01      -9.009e-03           0.152          -0.000           0.988       2.671e-03          0.7449
 279       2.083e-01       7.120e-01      -3.423e-03           0.125          -0.000           0.992       3.034e-03          0.8991
 280       1.657e-01       7.119e-01       1.610e-03           0.095          -0.000           0.995       3.151e-03          1.0517
 281       1.222e-01       7.119e-01       5.446e-03           0.066          -0.000           0.998       3.016e-03          1.2354
 282       8.133e-02       7.118e-01       7.855e-03           0.036           0.000           0.999       2.640e-03          1.5005
 283       4.640e-02       7.118e-01       8.824e-03          -0.003           0.000           1.000       2.054e-03          1.9269
 284       2.026e-02       7.118e-01       8.514e-03          -0.055           0.000           0.998       1.305e-03          2.8431
 285       5.003e-03       7.118e-01       7.472e-03          -0.178           0.000           0.984       4.536e-04          5.5962
Strip 27
 286       3.068e-01       7.588e-01      -1.974e-02           0.212          -0.024           0.977       1.376e-04          0.2771
 287       2.976e-01       7.587e-01      -1.781e-02           0.197          -0.025           0.980       4.002e-04          0.4389
 288       2.767e-01       7.587e-01      -1.381e-02           0.173          -0.027           0.985       6.280e-04          0.5835
 289       2.460e-01       7.586e-01      -8.612e-03           0.152          -0.028           0.988       8.040e-04          0.7418
 290       2.078e-01       7.585e-01      -3.039e-03           0.125          -0.030           0.992       9.135e-04          0.8959
 291       1.653e-01       7.584e-01       1.982e-03           0.095          -0.031           0.995       9.489e-04          1.0481
 292       1.219e-01       7.583e-01       5.809e-03           0.066          -0.032           0.997       9.083e-04          1.2313
 293       8.113e-02       7.583e-01       8.211e-03           0.036          -0.032           0.999       7.951e-04          1.4957
 294       4.629e-02       7.583e-01       9.178e-03          -0.003          -0.033           0.999       6.186e-04          1.9213
 295       2.021e-02       7.583e-01       8.869e-03          -0.055          -0.033           0.998       3.930e-04          2.8352
 296       4.991e-03       7.583e-01       7.830e-03          -0.178          -0.033           0.984       1.366e-04          5.5763
Strip 28
 297       3.039e-01       8.014e-01      -1.806e-02           0.212          -0.024           0.977       4.035e-04          0.2797
 298       2.947e-01       8.014e-01      -1.615e-02           0.197          -0.025           0.980       1.174e-03          0.4424
 299       2.741e-01       8.013e-01      -1.218e-02           0.173          -0.027           0.985       1.842e-03          0.5865
 300       2.436e-01       8.012e-01      -7.038e-03           0.152          -0.028           0.988       2.358e-03          0.7443
 301       2.058e-01       8.011e-01      -1.518e-03           0.125          -0.030           0.992       2.680e-03          0.8980
 302       1.637e-01       8.010e-01       3.455e-03           0.095          -0.031           0.995       2.783e-03          1.0501
 303       1.207e-01       8.010e-01       7.245e-03           0.066          -0.032           0.997       2.664e-03          1.2333
 304       8.036e-02       8.009e-01       9.625e-03           0.036          -0.032           0.999       2.332e-03          1.4979
 305       4.585e-02       8.009e-01       1.058e-02          -0.003          -0.033           0.999       1.814e-03          1.9241
 306       2.002e-02       8.009e-01       1.028e-02          -0.055          -0.033           0.998       1.153e-03          2.8403
 307       4.944e-03       8.009e-01       9.247e-03          -0.178          -0.033           0.984       4.007e-04          5.5917
Strip 29
 308       2.981e-01       8.851e-01      -1.476e-02           0.212          -0.024           0.977       6.429e-04          0.2813
 309       2.892e-01       8.851e-01      -1.289e-02           0.197          -0.025           0.980       1.870e-03          0.4452
 310       2.689e-01       8.850e-01      -8.998e-03           0.173          -0.027           0.985       2.935e-03          0.5903
 311       2.390e-01       8.849e-01      -3.950e-03           0.152          -0.028           0.988       3.757e-03          0.7487
 312       2.019e-01       8.848e-01       1.465e-03           0.125          -0.030           0.992       4.269e-03          0.9026
 313       1.606e-01       8.847e-01       6.344e-03           0.095          -0.031           0.995       4.435e-03          1.0549
 314       1.185e-01       8.846e-01       1.006e-02           0.066          -0.032           0.997       4.245e-03          1.2385
 315       7.884e-02       8.846e-01       1.240e-02           0.036          -0.032           0.999       3.716e-03          1.5042
 316       4.499e-02       8.846e-01       1.334e-02          -0.003          -0.033           0.999       2.891e-03          1.9325
 317       1.964e-02       8.846e-01       1.304e-02          -0.055          -0.033           0.998       1.837e-03          2.8536
 318       4.850e-03       8.846e-01       1.203e-02          -0.178          -0.033           0.984       6.384e-04          5.6237
Strip 30
 319       2.898e-01       1.007e+00      -9.975e-03           0.212          -0.024           0.977       8.410e-04          0.2826
 320       2.811e-01       1.007e+00      -8.153e-03           0.197          -0.025           0.980       2.447e-03          0.4474
 321       2.614e-01       1.006e+00      -4.374e-03           0.173          -0.027           0.985       3.840e-03          0.5936
 322       2.323e-01       1.006e+00       5.324e-04           0.152          -0.028           0.988       4.915e-03          0.7529
 323       1.963e-01       1.006e+00       5.796e-03           0.125          -0.030           0.992       5.585e-03          0.9077
 324       1.561e-01       1.006e+00       1.054e-02           0.095          -0.031           0.995       5.801e-03          1.0609
 325       1.151e-01       1.006e+00       1.415e-02           0.066          -0.032           0.997       5.553e-03          1.2457
 326       7.663e-02       1.006e+00       1.642e-02           0.036          -0.032           0.999       4.861e-03          1.5130
 327       4.373e-02       1.006e+00       1.734e-02          -0.003          -0.033           0.999       3.782e-03          1.9443
 328       1.909e-02       1.006e+00       1.704e-02          -0.055          -0.033           0.998       2.403e-03          2.8725
 329       4.715e-03       1.006e+00       1.606e-02          -0.178          -0.033           0.984       8.352e-04          5.6681
Strip 31
 330       2.792e-01       1.161e+00      -3.885e-03           0.212          -0.024           0.977       9.873e-04          0.2836
 331       2.708e-01       1.161e+00      -2.130e-03           0.197          -0.025           0.980       2.872e-03          0.4493
 332       2.518e-01       1.161e+00       1.511e-03           0.173          -0.027           0.985       4.507e-03          0.5965
 333       2.238e-01       1.161e+00       6.238e-03           0.152          -0.028           0.988       5.770e-03          0.7568
 334       1.891e-01       1.161e+00       1.131e-02           0.125          -0.030           0.992       6.556e-03          0.9126
 335       1.504e-01       1.161e+00       1.588e-02           0.095          -0.031           0.995       6.810e-03          1.0669
 336       1.109e-01       1.161e+00       1.936e-02           0.066          -0.032           0.997       6.519e-03          1.2531
 337       7.383e-02       1.161e+00       2.155e-02           0.036          -0.032           0.999       5.707e-03          1.5225
 338       4.213e-02       1.161e+00       2.243e-02          -0.003          -0.033           0.999       4.439e-03          1.9572
 339       1.839e-02       1.161e+00       2.215e-02          -0.055          -0.033           0.998       2.821e-03          2.8932
 340       4.542e-03       1.161e+00       2.120e-02          -0.178          -0.033           0.984       9.804e-04          5.7168
Strip 32
 341       2.667e-01       1.343e+00       3.277e-03           0.212          -0.024           0.977       1.076e-03          0.2845
 342       2.587e-01       1.343e+00       4.953e-03           0.197          -0.025           0.980       3.131e-03          0.4509
 343       2.406e-01       1.343e+00       8.431e-03           0.173          -0.027           0.985       4.913e-03          0.5989
 344       2.138e-01       1.343e+00       1.295e-02           0.152          -0.028           0.988       6.289e-03          0.7601
 345       1.807e-01       1.343e+00       1.779e-02           0.125          -0.030           0.992       7.146e-03          0.9168
 346       1.437e-01       1.343e+00       2.216e-02           0.095          -0.031           0.995       7.422e-03          1.0723
 347       1.060e-01       1.343e+00       2.548e-02           0.066          -0.032           0.997       7.105e-03          1.2599
 348       7.053e-02       1.342e+00       2.757e-02           0.036          -0.032           0.999       6.220e-03          1.5311
 349       4.025e-02       1.342e+00       2.841e-02          -0.003          -0.033           0.999       4.839e-03          1.9691
 350       1.757e-02       1.342e+00       2.814e-02          -0.055          -0.033           0.998       3.074e-03          2.9125
 351       4.339e-03       1.343e+00       2.724e-02          -0.178          -0.033           0.984       1.069e-03          5.7625
Strip 33
 352       2.529e-01       1.545e+00       1.123e-02           0.212          -0.024           0.977       1.107e-03          0.2852
 353       2.452e-01       1.545e+00       1.282e-02           0.197          -0.025           0.980       3.221e-03          0.4520
 354       2.281e-01       1.545e+00       1.612e-02           0.173          -0.027           0.985       5.054e-03          0.6007
 355       2.027e-01       1.545e+00       2.040e-02           0.152          -0.028           0.988       6.469e-03          0.7626
 356       1.713e-01       1.545e+00       2.499e-02           0.125          -0.030           0.992       7.351e-03          0.9201
 357       1.362e-01       1.545e+00       2.913e-02           0.095          -0.031           0.995       7.635e-03          1.0764
 358       1.005e-01       1.545e+00       3.228e-02           0.066          -0.032           0.997       7.309e-03          1.2651
 359       6.687e-02       1.545e+00       3.427e-02           0.036          -0.032           0.999       6.398e-03          1.5379
 360       3.816e-02       1.544e+00       3.506e-02          -0.003          -0.033           0.999       4.978e-03          1.9785
 361       1.666e-02       1.544e+00       3.481e-02          -0.055          -0.033           0.998       3.162e-03          2.9280
 362       4.114e-03       1.545e+00       3.395e-02          -0.178          -0.033           0.984       1.099e-03          5.7991
Strip 34
 363       2.381e-01       1.759e+00       1.968e-02           0.212          -0.024           0.977       1.084e-03          0.2855
 364       2.310e-01       1.759e+00       2.118e-02           0.197          -0.025           0.980       3.155e-03          0.4527
 365       2.148e-01       1.759e+00       2.428e-02           0.173          -0.027           0.985       4.950e-03          0.6017
 366       1.909e-01       1.759e+00       2.831e-02           0.152          -0.028           0.988       6.337e-03          0.7639
 367       1.613e-01       1.759e+00       3.264e-02           0.125          -0.030           0.992       7.200e-03          0.9219
 368       1.283e-01       1.759e+00       3.654e-02           0.095          -0.031           0.995       7.479e-03          1.0788
 369       9.462e-02       1.759e+00       3.951e-02           0.066          -0.032           0.997       7.159e-03          1.2681
 370       6.298e-02       1.759e+00       4.137e-02           0.036          -0.032           0.999       6.267e-03          1.5418
 371       3.594e-02       1.759e+00       4.212e-02          -0.003          -0.033           0.999       4.875e-03          1.9840
 372       1.569e-02       1.759e+00       4.188e-02          -0.055          -0.033           0.998       3.097e-03          2.9370
 373       3.875e-03       1.759e+00       4.108e-02          -0.178          -0.033           0.984       1.077e-03          5.8205
Strip 35
 374       2.231e-01       1.978e+00       2.829e-02           0.212          -0.024           0.977       1.016e-03          0.2854
 375       2.164e-01       1.978e+00       2.970e-02           0.197          -0.025           0.980       2.956e-03          0.4525
 376       2.013e-01       1.978e+00       3.261e-02           0.173          -0.027           0.985       4.638e-03          0.6015
 377       1.789e-01       1.978e+00       3.638e-02           0.152          -0.028           0.988       5.938e-03          0.7637
 378       1.511e-01       1.978e+00       4.044e-02           0.125          -0.030           0.992       6.746e-03          0.9217
 379       1.202e-01       1.978e+00       4.409e-02           0.095          -0.031           0.995       7.008e-03          1.0785
 380       8.866e-02       1.978e+00       4.687e-02           0.066          -0.032           0.997       6.708e-03          1.2678
 381       5.901e-02       1.978e+00       4.862e-02           0.036          -0.032           0.999       5.872e-03          1.5414
 382       3.367e-02       1.978e+00       4.932e-02          -0.003          -0.033           0.999       4.568e-03          1.9835
 383       1.470e-02       1.978e+00       4.910e-02          -0.055          -0.033           0.998       2.902e-03          2.9362
 384       3.630e-03       1.978e+00       4.834e-02          -0.178          -0.033           0.984       1.009e-03          5.8188
Strip 36
 385       2.084e-01       2.193e+00       3.674e-02           0.212          -0.024           0.977       9.126e-04          0.2846
 386       2.022e-01       2.193e+00       3.805e-02           0.197          -0.025           0.980       2.655e-03          0.4512
 387       1.880e-01       2.192e+00       4.077e-02           0.173          -0.027           0.985       4.166e-03          0.5994
 388       1.671e-01       2.192e+00       4.430e-02           0.152          -0.028           0.988       5.333e-03          0.7609
 389       1.412e-01       2.192e+00       4.808e-02           0.125          -0.030           0.992       6.060e-03          0.9181
 390       1.123e-01       2.192e+00       5.149e-02           0.095          -0.031           0.995       6.294e-03          1.0740
 391       8.282e-02       2.192e+00       5.409e-02           0.066          -0.032           0.997       6.025e-03          1.2621
 392       5.512e-02       2.192e+00       5.572e-02           0.036          -0.032           0.999       5.274e-03          1.5341
 393       3.145e-02       2.192e+00       5.638e-02          -0.003          -0.033           0.999       4.103e-03          1.9735
 394       1.373e-02       2.192e+00       5.617e-02          -0.055          -0.033           0.998       2.607e-03          2.9198
 395       3.391e-03       2.192e+00       5.547e-02          -0.178          -0.033           0.984       9.061e-04          5.7802
Strip 37
 396       1.946e-01       2.395e+00       4.470e-02           0.212          -0.024           0.977       7.851e-04          0.2827
 397       1.887e-01       2.395e+00       4.592e-02           0.197          -0.025           0.980       2.284e-03          0.4476
 398       1.755e-01       2.394e+00       4.846e-02           0.173          -0.027           0.985       3.584e-03          0.5941
 399       1.560e-01       2.394e+00       5.175e-02           0.152          -0.028           0.988       4.588e-03          0.7537
 400       1.318e-01       2.394e+00       5.528e-02           0.125          -0.030           0.992       5.213e-03          0.9088
 401       1.048e-01       2.394e+00       5.847e-02           0.095          -0.031           0.995       5.415e-03          1.0624
 402       7.731e-02       2.394e+00       6.089e-02           0.066          -0.032           0.997       5.183e-03          1.2475
 403       5.146e-02       2.394e+00       6.242e-02           0.036          -0.032           0.999       4.538e-03          1.5154
 404       2.936e-02       2.394e+00       6.303e-02          -0.003          -0.033           0.999       3.530e-03          1.9475
 405       1.282e-02       2.394e+00       6.284e-02          -0.055          -0.033           0.998       2.243e-03          2.8776
 406       3.166e-03       2.394e+00       6.218e-02          -0.178          -0.033           0.984       7.796e-04          5.6808
Strip 38
 407       1.821e-01       2.576e+00       5.186e-02           0.212          -0.024           0.977       6.441e-04          0.2784
 408       1.766e-01       2.576e+00       5.300e-02           0.197          -0.025           0.980       1.874e-03          0.4400
 409       1.643e-01       2.576e+00       5.538e-02           0.173          -0.027           0.985       2.940e-03          0.5827
 410       1.460e-01       2.576e+00       5.846e-02           0.152          -0.028           0.988       3.764e-03          0.7382
 411       1.233e-01       2.576e+00       6.177e-02           0.125          -0.030           0.992       4.277e-03          0.8890
 412       9.812e-02       2.576e+00       6.475e-02           0.095          -0.031           0.995       4.442e-03          1.0376
 413       7.236e-02       2.576e+00       6.702e-02           0.066          -0.032           0.997       4.252e-03          1.2168
 414       4.816e-02       2.576e+00       6.844e-02           0.036          -0.032           0.999       3.722e-03          1.4760
 415       2.748e-02       2.576e+00       6.902e-02          -0.003          -0.033           0.999       2.896e-03          1.8935
 416       1.200e-02       2.576e+00       6.883e-02          -0.055          -0.033           0.998       1.840e-03          2.7903
 417       2.963e-03       2.576e+00       6.822e-02          -0.178          -0.033           0.984       6.395e-04          5.4759
Strip 39
 418       1.715e-01       2.731e+00       5.795e-02           0.212          -0.024           0.977       4.978e-04          0.2696
 419       1.663e-01       2.731e+00       5.903e-02           0.197          -0.025           0.980       1.448e-03          0.4245
 420       1.547e-01       2.731e+00       6.126e-02           0.173          -0.027           0.985       2.273e-03          0.5593
 421       1.375e-01       2.731e+00       6.416e-02           0.152          -0.028           0.988       2.909e-03          0.7066
 422       1.162e-01       2.731e+00       6.728e-02           0.125          -0.030           0.992       3.305e-03          0.8486
 423       9.240e-02       2.731e+00       7.008e-02           0.095          -0.031           0.995       3.433e-03          0.9877
 424       6.814e-02       2.731e+00       7.222e-02           0.066          -0.032           0.997       3.286e-03          1.1555
 425       4.535e-02       2.730e+00       7.357e-02           0.036          -0.032           0.999       2.877e-03          1.3990
 426       2.588e-02       2.730e+00       7.411e-02          -0.003          -0.033           0.999       2.238e-03          1.7892
 427       1.130e-02       2.730e+00       7.393e-02          -0.055          -0.033           0.998       1.422e-03          2.6236
 428       2.790e-03       2.730e+00       7.335e-02          -0.178          -0.033           0.984       4.943e-04          5.0867
Strip 40
 429       1.632e-01       2.852e+00       6.273e-02           0.212          -0.024           0.977       3.519e-04          0.2522
 430       1.583e-01       2.852e+00       6.376e-02           0.197          -0.025           0.980       1.024e-03          0.3933
 431       1.472e-01       2.852e+00       6.589e-02           0.173          -0.027           0.985       1.607e-03          0.5121
 432       1.308e-01       2.852e+00       6.865e-02           0.152          -0.028           0.988       2.057e-03          0.6426
 433       1.105e-01       2.852e+00       7.161e-02           0.125          -0.030           0.992       2.337e-03          0.7674
 434       8.791e-02       2.852e+00       7.428e-02           0.095          -0.031           0.995       2.427e-03          0.8887
 435       6.483e-02       2.852e+00       7.631e-02           0.066          -0.032           0.997       2.323e-03          1.0368
 436       4.315e-02       2.852e+00       7.759e-02           0.036          -0.032           0.999       2.034e-03          1.2538
 437       2.462e-02       2.852e+00       7.811e-02          -0.003          -0.033           0.999       1.582e-03          1.5980
 438       1.075e-02       2.852e+00       7.794e-02          -0.055          -0.033           0.998       1.005e-03          2.3241
 439       2.655e-03       2.852e+00       7.739e-02          -0.178          -0.033           0.984       3.494e-04          4.3937
Strip 41
 440       1.574e-01       2.936e+00       6.603e-02           0.212          -0.024           0.977       2.091e-04          0.2205
 441       1.527e-01       2.936e+00       6.702e-02           0.197          -0.025           0.980       6.084e-04          0.3355
 442       1.420e-01       2.936e+00       6.907e-02           0.173          -0.027           0.985       9.546e-04          0.4230
 443       1.262e-01       2.936e+00       7.173e-02           0.152          -0.028           0.988       1.222e-03          0.5206
 444       1.066e-01       2.936e+00       7.459e-02           0.125          -0.030           0.992       1.388e-03          0.6125
 445       8.482e-02       2.936e+00       7.717e-02           0.095          -0.031           0.995       1.442e-03          0.7019
 446       6.255e-02       2.936e+00       7.913e-02           0.066          -0.032           0.997       1.380e-03          0.8179
 447       4.163e-02       2.936e+00       8.036e-02           0.036          -0.032           0.999       1.208e-03          0.9965
 448       2.376e-02       2.936e+00       8.086e-02          -0.003          -0.033           0.999       9.401e-04          1.2753
 449       1.037e-02       2.936e+00       8.070e-02          -0.055          -0.033           0.998       5.973e-04          1.8391
 450       2.561e-03       2.936e+00       8.017e-02          -0.178          -0.033           0.984       2.076e-04          3.2927
Strip 42
 451       1.545e-01       2.979e+00       6.771e-02           0.212          -0.024           0.977       6.929e-05          0.1737
 452       1.499e-01       2.979e+00       6.868e-02           0.197          -0.025           0.980       2.016e-04          0.2415
 453       1.394e-01       2.979e+00       7.069e-02           0.173          -0.027           0.985       3.163e-04          0.2789
 454       1.239e-01       2.979e+00       7.331e-02           0.152          -0.028           0.988       4.049e-04          0.3306
 455       1.046e-01       2.978e+00       7.611e-02           0.125          -0.030           0.992       4.601e-04          0.3799
 456       8.324e-02       2.978e+00       7.864e-02           0.095          -0.031           0.995       4.779e-04          0.4270
 457       6.139e-02       2.978e+00       8.057e-02           0.066          -0.032           0.997       4.574e-04          0.4943
 458       4.086e-02       2.978e+00       8.178e-02           0.036          -0.032           0.999       4.004e-04          0.6118
 459       2.331e-02       2.978e+00       8.226e-02          -0.003          -0.033           0.999       3.115e-04          0.8093
 460       1.018e-02       2.978e+00       8.211e-02          -0.055          -0.033           0.998       1.979e-04          1.2008
 461       2.514e-03       2.978e+00       8.159e-02          -0.178          -0.033           0.984       6.880e-05          1.9324




Horizontal StabilizerCp Coefficients
Strip 1
   0       1.117e+00      -7.457e-01       4.013e-01          -0.015           0.000           1.000       9.633e-06          0.0021
   1       1.113e+00      -7.457e-01       4.013e-01          -0.015           0.000           1.000       2.812e-05          0.0034
   2       1.104e+00      -7.457e-01       4.011e-01          -0.015           0.000           1.000       4.433e-05          0.0048
   3       1.092e+00      -7.457e-01       4.009e-01          -0.015           0.000           1.000       5.694e-05          0.0063
   4       1.076e+00      -7.457e-01       4.007e-01          -0.015           0.000           1.000       6.495e-05          0.0081
   5       1.059e+00      -7.457e-01       4.004e-01          -0.015           0.000           1.000       6.769e-05          0.0104
   6       1.042e+00      -7.457e-01       4.002e-01          -0.015           0.000           1.000       6.495e-05          0.0140
   7       1.025e+00      -7.457e-01       3.999e-01          -0.015           0.000           1.000       5.694e-05          0.0200
   8       1.011e+00      -7.457e-01       3.997e-01          -0.015           0.000           1.000       4.433e-05          0.0320
   9       1.000e+00      -7.457e-01       3.995e-01          -0.015           0.000           1.000       2.812e-05          0.0649
  10       9.942e-01      -7.457e-01       3.994e-01          -0.015           0.000           1.000       9.633e-06          0.2009
Strip 2
  11       1.117e+00      -7.382e-01       4.013e-01          -0.015           0.000           1.000       2.870e-05          0.0033
  12       1.113e+00      -7.382e-01       4.013e-01          -0.015           0.000           1.000       8.378e-05          0.0056
  13       1.104e+00      -7.382e-01       4.011e-01          -0.015           0.000           1.000       1.321e-04          0.0081
  14       1.092e+00      -7.382e-01       4.009e-01          -0.015           0.000           1.000       1.697e-04          0.0108
  15       1.076e+00      -7.382e-01       4.007e-01          -0.015           0.000           1.000       1.935e-04          0.0140
  16       1.059e+00      -7.382e-01       4.004e-01          -0.015           0.000           1.000       2.017e-04          0.0183
  17       1.042e+00      -7.382e-01       4.002e-01          -0.015           0.000           1.000       1.935e-04          0.0247
  18       1.025e+00      -7.382e-01       3.999e-01          -0.015           0.000           1.000       1.697e-04          0.0357
  19       1.011e+00      -7.382e-01       3.997e-01          -0.015           0.000           1.000       1.321e-04          0.0580
[...]
  93       1.063e+00      -4.356e-16       2.696e-01           0.000           1.000           0.000       6.612e-04          0.0000
  94       1.039e+00      -4.356e-16       2.696e-01           0.000           1.000           0.000       6.344e-04          0.0000
  95       1.016e+00      -4.356e-16       2.696e-01           0.000           1.000           0.000       5.562e-04          0.0000
  96       9.959e-01      -4.356e-16       2.696e-01           0.000           1.000           0.000       4.330e-04          0.0000
  97       9.812e-01      -4.356e-16       2.696e-01           0.000           1.000           0.000       2.747e-04          0.0000
  98       9.726e-01      -4.356e-16       2.696e-01           0.000           1.000           0.000       9.410e-05          0.0000
Strip 10
  99       1.148e+00      -3.915e-16       2.423e-01           0.000           1.000           0.000       1.039e-04          0.0000
 100       1.143e+00      -3.915e-16       2.423e-01           0.000           1.000           0.000       3.033e-04          0.0000
 101       1.130e+00      -3.915e-16       2.423e-01           0.000           1.000           0.000       4.782e-04          0.0000
 102       1.112e+00      -3.915e-16       2.423e-01           0.000           1.000           0.000       6.143e-04          0.0000
 103       1.089e+00      -3.915e-16       2.423e-01           0.000           1.000           0.000       7.006e-04          0.0000
 104       1.064e+00      -3.915e-16       2.423e-01           0.000           1.000           0.000       7.302e-04          0.0000
 105       1.038e+00      -3.915e-16       2.423e-01           0.000           1.000           0.000       7.006e-04          0.0000
 106       1.014e+00      -3.915e-16       2.423e-01           0.000           1.000           0.000       6.143e-04          0.0000
 107       9.927e-01      -3.915e-16       2.423e-01           0.000           1.000           0.000       4.782e-04          0.0000
 108       9.771e-01      -3.915e-16       2.423e-01           0.000           1.000           0.000       3.033e-04          0.0000
 109       9.680e-01      -3.915e-16       2.423e-01           0.000           1.000           0.000       1.039e-04          0.0000
Strip 11
 110       1.154e+00      -3.460e-16       2.142e-01           0.000           1.000           0.000       1.122e-04          0.0000
 111       1.148e+00      -3.460e-16       2.142e-01           0.000           1.000           0.000       3.274e-04          0.0000
 112       1.135e+00      -3.460e-16       2.142e-01           0.000           1.000           0.000       5.161e-04          0.0000
 113       1.116e+00      -3.460e-16       2.142e-01           0.000           1.000           0.000       6.630e-04          0.0000
 114       1.091e+00      -3.460e-16       2.142e-01           0.000           1.000           0.000       7.562e-04          0.0000
 115       1.065e+00      -3.460e-16       2.142e-01           0.000           1.000           0.000       7.881e-04          0.0000
 116       1.037e+00      -3.460e-16       2.142e-01           0.000           1.000           0.000       7.562e-04          0.0000
 117       1.011e+00      -3.460e-16       2.142e-01           0.000           1.000           0.000       6.630e-04          0.0000
 118       9.894e-01      -3.460e-16       2.142e-01           0.000           1.000           0.000       5.161e-04          0.0000
 119       9.730e-01      -3.460e-16       2.142e-01           0.000           1.000           0.000       3.274e-04          0.0000
 120       9.633e-01      -3.460e-16       2.142e-01           0.000           1.000           0.000       1.122e-04          0.0000
Strip 12
 121       1.160e+00      -3.000e-16       1.857e-01           0.000           1.000           0.000       1.183e-04          0.0000
 122       1.154e+00      -3.000e-16       1.857e-01           0.000           1.000           0.000       3.453e-04          0.0000
 123       1.140e+00      -3.000e-16       1.857e-01           0.000           1.000           0.000       5.444e-04          0.0000
 124       1.119e+00      -3.000e-16       1.857e-01           0.000           1.000           0.000       6.993e-04          0.0000
 125       1.094e+00      -3.000e-16       1.857e-01           0.000           1.000           0.000       7.976e-04          0.0000
 126       1.065e+00      -3.000e-16       1.857e-01           0.000           1.000           0.000       8.313e-04          0.0000
 127       1.037e+00      -3.000e-16       1.857e-01           0.000           1.000           0.000       7.976e-04          0.0000
 128       1.009e+00      -3.000e-16       1.857e-01           0.000           1.000           0.000       6.993e-04          0.0000
 129       9.861e-01      -3.000e-16       1.857e-01           0.000           1.000           0.000       5.444e-04          0.0000
 130       9.688e-01      -3.000e-16       1.857e-01           0.000           1.000           0.000       3.453e-04          0.0000
 131       9.586e-01      -3.000e-16       1.857e-01           0.000           1.000           0.000       1.183e-04          0.0000
Strip 13
 132       1.165e+00      -2.545e-16       1.576e-01           0.000           1.000           0.000       1.219e-04          0.0000
 133       1.159e+00      -2.545e-16       1.576e-01           0.000           1.000           0.000       3.557e-04          0.0000
 134       1.144e+00      -2.545e-16       1.576e-01           0.000           1.000           0.000       5.607e-04          0.0000
 135       1.123e+00      -2.545e-16       1.576e-01           0.000           1.000           0.000       7.203e-04          0.0000
 136       1.096e+00      -2.545e-16       1.576e-01           0.000           1.000           0.000       8.216e-04          0.0000
 137       1.066e+00      -2.545e-16       1.576e-01           0.000           1.000           0.000       8.562e-04          0.0000
 138       1.036e+00      -2.545e-16       1.576e-01           0.000           1.000           0.000       8.216e-04          0.0000
 139       1.007e+00      -2.545e-16       1.576e-01           0.000           1.000           0.000       7.203e-04          0.0000
 140       9.829e-01      -2.545e-16       1.576e-01           0.000           1.000           0.000       5.607e-04          0.0000
 141       9.646e-01      -2.545e-16       1.576e-01           0.000           1.000           0.000       3.557e-04          0.0000
 142       9.539e-01      -2.545e-16       1.576e-01           0.000           1.000           0.000       1.219e-04          0.0000
Strip 14
 143       1.171e+00      -2.104e-16       1.302e-01           0.000           1.000           0.000       1.224e-04          0.0000
 144       1.164e+00      -2.104e-16       1.302e-01           0.000           1.000           0.000       3.572e-04          0.0000
 145       1.149e+00      -2.104e-16       1.302e-01           0.000           1.000           0.000       5.632e-04          0.0000
 146       1.126e+00      -2.104e-16       1.302e-01           0.000           1.000           0.000       7.234e-04          0.0000
 147       1.098e+00      -2.104e-16       1.302e-01           0.000           1.000           0.000       8.251e-04          0.0000
 148       1.067e+00      -2.104e-16       1.302e-01           0.000           1.000           0.000       8.600e-04          0.0000
 149       1.035e+00      -2.104e-16       1.302e-01           0.000           1.000           0.000       8.251e-04          0.0000
 150       1.005e+00      -2.104e-16       1.302e-01           0.000           1.000           0.000       7.234e-04          0.0000
 151       9.797e-01      -2.104e-16       1.302e-01           0.000           1.000           0.000       5.632e-04          0.0000
 152       9.606e-01      -2.104e-16       1.302e-01           0.000           1.000           0.000       3.572e-04          0.0000
 153       9.494e-01      -2.104e-16       1.302e-01           0.000           1.000           0.000       1.224e-04          0.0000
Strip 15
 154       1.176e+00      -1.686e-16       1.044e-01           0.000           1.000           0.000       1.196e-04          0.0000
 155       1.169e+00      -1.686e-16       1.044e-01           0.000           1.000           0.000       3.490e-04          0.0000
 156       1.153e+00      -1.686e-16       1.044e-01           0.000           1.000           0.000       5.502e-04          0.0000
 157       1.130e+00      -1.686e-16       1.044e-01           0.000           1.000           0.000       7.068e-04          0.0000
 158       1.100e+00      -1.686e-16       1.044e-01           0.000           1.000           0.000       8.061e-04          0.0000
 159       1.068e+00      -1.686e-16       1.044e-01           0.000           1.000           0.000       8.401e-04          0.0000
 160       1.035e+00      -1.686e-16       1.044e-01           0.000           1.000           0.000       8.061e-04          0.0000
 161       1.003e+00      -1.686e-16       1.044e-01           0.000           1.000           0.000       7.068e-04          0.0000
 162       9.767e-01      -1.686e-16       1.044e-01           0.000           1.000           0.000       5.502e-04          0.0000
 163       9.568e-01      -1.686e-16       1.044e-01           0.000           1.000           0.000       3.490e-04          0.0000
 164       9.451e-01      -1.686e-16       1.044e-01           0.000           1.000           0.000       1.196e-04          0.0000
Strip 16
 165       1.181e+00      -1.299e-16       8.043e-02           0.000           1.000           0.000       1.132e-04          0.0000
 166       1.174e+00      -1.299e-16       8.043e-02           0.000           1.000           0.000       3.304e-04          0.0000
 167       1.157e+00      -1.299e-16       8.043e-02           0.000           1.000           0.000       5.209e-04          0.0000
 168       1.133e+00      -1.299e-16       8.043e-02           0.000           1.000           0.000       6.692e-04          0.0000
 169       1.102e+00      -1.299e-16       8.043e-02           0.000           1.000           0.000       7.632e-04          0.0000
 170       1.068e+00      -1.299e-16       8.043e-02           0.000           1.000           0.000       7.955e-04          0.0000
 171       1.034e+00      -1.299e-16       8.043e-02           0.000           1.000           0.000       7.632e-04          0.0000
 172       1.002e+00      -1.299e-16       8.043e-02           0.000           1.000           0.000       6.692e-04          0.0000
 173       9.739e-01      -1.299e-16       8.043e-02           0.000           1.000           0.000       5.209e-04          0.0000
 174       9.532e-01      -1.299e-16       8.043e-02           0.000           1.000           0.000       3.304e-04          0.0000
 175       9.411e-01      -1.299e-16       8.043e-02           0.000           1.000           0.000       1.132e-04          0.0000
Strip 17
 176       1.185e+00      -9.519e-17       5.892e-02           0.000           1.000           0.000       1.033e-04          0.0000
 177       1.178e+00      -9.519e-17       5.892e-02           0.000           1.000           0.000       3.015e-04          0.0000
 178       1.161e+00      -9.519e-17       5.892e-02           0.000           1.000           0.000       4.753e-04          0.0000
 179       1.135e+00      -9.519e-17       5.892e-02           0.000           1.000           0.000       6.105e-04          0.0000
 180       1.104e+00      -9.519e-17       5.892e-02           0.000           1.000           0.000       6.964e-04          0.0000
 181       1.069e+00      -9.519e-17       5.892e-02           0.000           1.000           0.000       7.258e-04          0.0000
 182       1.033e+00      -9.519e-17       5.892e-02           0.000           1.000           0.000       6.964e-04          0.0000
 183       1.000e+00      -9.519e-17       5.892e-02           0.000           1.000           0.000       6.105e-04          0.0000
 184       9.714e-01      -9.519e-17       5.892e-02           0.000           1.000           0.000       4.753e-04          0.0000
 185       9.500e-01      -9.519e-17       5.892e-02           0.000           1.000           0.000       3.015e-04          0.0000
 186       9.376e-01      -9.519e-17       5.892e-02           0.000           1.000           0.000       1.033e-04          0.0000
Strip 18
 187       1.189e+00      -6.509e-17       4.029e-02           0.000           1.000           0.000       8.995e-05          0.0000
 188       1.181e+00      -6.509e-17       4.029e-02           0.000           1.000           0.000       2.626e-04          0.0000
 189       1.164e+00      -6.509e-17       4.029e-02           0.000           1.000           0.000       4.139e-04          0.0000
 190       1.138e+00      -6.509e-17       4.029e-02           0.000           1.000           0.000       5.317e-04          0.0000
 191       1.105e+00      -6.509e-17       4.029e-02           0.000           1.000           0.000       6.065e-04          0.0000
 192       1.070e+00      -6.509e-17       4.029e-02           0.000           1.000           0.000       6.321e-04          0.0000
 193       1.033e+00      -6.509e-17       4.029e-02           0.000           1.000           0.000       6.065e-04          0.0000
 194       9.987e-01      -6.509e-17       4.029e-02           0.000           1.000           0.000       5.317e-04          0.0000
 195       9.693e-01      -6.509e-17       4.029e-02           0.000           1.000           0.000       4.139e-04          0.0000
 196       9.473e-01      -6.509e-17       4.029e-02           0.000           1.000           0.000       2.626e-04          0.0000
 197       9.345e-01      -6.509e-17       4.029e-02           0.000           1.000           0.000       8.995e-05          0.0000
Strip 19
 198       1.192e+00      -4.023e-17       2.490e-02           0.000           1.000           0.000       7.353e-05          0.0000
 199       1.184e+00      -4.023e-17       2.490e-02           0.000           1.000           0.000       2.146e-04          0.0000
 200       1.166e+00      -4.023e-17       2.490e-02           0.000           1.000           0.000       3.384e-04          0.0000
 201       1.140e+00      -4.023e-17       2.490e-02           0.000           1.000           0.000       4.347e-04          0.0000
 202       1.107e+00      -4.023e-17       2.490e-02           0.000           1.000           0.000       4.958e-04          0.0000
 203       1.070e+00      -4.023e-17       2.490e-02           0.000           1.000           0.000       5.167e-04          0.0000
 204       1.033e+00      -4.023e-17       2.490e-02           0.000           1.000           0.000       4.958e-04          0.0000
 205       9.975e-01      -4.023e-17       2.490e-02           0.000           1.000           0.000       4.347e-04          0.0000
 206       9.675e-01      -4.023e-17       2.490e-02           0.000           1.000           0.000       3.384e-04          0.0000
 207       9.450e-01      -4.023e-17       2.490e-02           0.000           1.000           0.000       2.146e-04          0.0000
 208       9.319e-01      -4.023e-17       2.490e-02           0.000           1.000           0.000       7.353e-05          0.0000
Strip 20
 209       1.194e+00      -2.114e-17       1.308e-02           0.000           1.000           0.000       5.451e-05          0.0000
 210       1.186e+00      -2.114e-17       1.308e-02           0.000           1.000           0.000       1.591e-04          0.0000
 211       1.168e+00      -2.114e-17       1.308e-02           0.000           1.000           0.000       2.508e-04          0.0000
 212       1.141e+00      -2.114e-17       1.308e-02           0.000           1.000           0.000       3.222e-04          0.0000
 213       1.108e+00      -2.114e-17       1.308e-02           0.000           1.000           0.000       3.675e-04          0.0000
 214       1.070e+00      -2.114e-17       1.308e-02           0.000           1.000           0.000       3.831e-04          0.0000
 215       1.032e+00      -2.114e-17       1.308e-02           0.000           1.000           0.000       3.675e-04          0.0000
 216       9.967e-01      -2.114e-17       1.308e-02           0.000           1.000           0.000       3.222e-04          0.0000
 217       9.661e-01      -2.114e-17       1.308e-02           0.000           1.000           0.000       2.508e-04          0.0000
 218       9.433e-01      -2.114e-17       1.308e-02           0.000           1.000           0.000       1.591e-04          0.0000
 219       9.299e-01      -2.114e-17       1.308e-02           0.000           1.000           0.000       5.451e-05          0.0000
Strip 21
 220       1.196e+00      -8.186e-18       5.067e-03           0.000           1.000           0.000       3.353e-05          0.0000
 221       1.188e+00      -8.186e-18       5.067e-03           0.000           1.000           0.000       9.787e-05          0.0000
 222       1.169e+00      -8.186e-18       5.067e-03           0.000           1.000           0.000       1.543e-04          0.0000
 223       1.142e+00      -8.186e-18       5.067e-03           0.000           1.000           0.000       1.982e-04          0.0000
 224       1.108e+00      -8.186e-18       5.067e-03           0.000           1.000           0.000       2.260e-04          0.0000
 225       1.071e+00      -8.186e-18       5.067e-03           0.000           1.000           0.000       2.356e-04          0.0000
 226       1.032e+00      -8.186e-18       5.067e-03           0.000           1.000           0.000       2.260e-04          0.0000
 227       9.961e-01      -8.186e-18       5.067e-03           0.000           1.000           0.000       1.982e-04          0.0000
 228       9.652e-01      -8.186e-18       5.067e-03           0.000           1.000           0.000       1.543e-04          0.0000
 229       9.421e-01      -8.186e-18       5.067e-03           0.000           1.000           0.000       9.787e-05          0.0000
 230       9.286e-01      -8.186e-18       5.067e-03           0.000           1.000           0.000       3.353e-05          0.0000
Strip 22
 231       1.197e+00      -1.644e-18       1.018e-03           0.000           1.000           0.000       1.131e-05          0.0000
 232       1.189e+00      -1.644e-18       1.018e-03           0.000           1.000           0.000       3.303e-05          0.0000
 233       1.170e+00      -1.644e-18       1.018e-03           0.000           1.000           0.000       5.207e-05          0.0000
 234       1.143e+00      -1.644e-18       1.018e-03           0.000           1.000           0.000       6.689e-05          0.0000
 235       1.109e+00      -1.644e-18       1.018e-03           0.000           1.000           0.000       7.629e-05          0.0000
 236       1.071e+00      -1.644e-18       1.018e-03           0.000           1.000           0.000       7.951e-05          0.0000
 237       1.032e+00      -1.644e-18       1.018e-03           0.000           1.000           0.000       7.629e-05          0.0000
 238       9.958e-01      -1.644e-18       1.018e-03           0.000           1.000           0.000       6.689e-05          0.0000
 239       9.647e-01      -1.644e-18       1.018e-03           0.000           1.000           0.000       5.207e-05          0.0000
 240       9.415e-01      -1.644e-18       1.018e-03           0.000           1.000           0.000       3.303e-05          0.0000
 241       9.279e-01      -1.644e-18       1.018e-03           0.000           1.000           0.000       1.131e-05          0.0000




