xflr5 v6.61

Rev 6
T1-12.1 m/s-VLM2-9.1kg-x-0.1m
QInf  =   12.120000 m/s
Alpha =   -7.500000
Beta  =    0.000°
Phi   =    0.000°
Ctrl  =    0.000
CL    =   -0.016140
Cy    =    0.000000
Cd    =    0.019784     ICd   =    0.001857     PCd   =    0.017927
Cl   = -1.80217e-15
Cm   =    0.249301
ICn   =   -0.000000     PCn   =   -0.000000 
XCP   =    4.079263     YCP   =   -0.000000     ZCP   =    2.278465  
XNP   =    0.000000
Bending =    6.745672

Main Wing
  y-span        Chord      Ai         Cl        PCd          ICd        CmGeom    CmAirf@chord/4    XTrtop    XTrBot      XCP       BM
   -2.9798     0.1557    -0.927    0.048984    0.016711    0.000793   -0.100808   -0.064555     0.9578    0.3434    1.5599    0.0000
   -2.9371     0.1587    -0.447    0.067652    0.016356    0.000528   -0.141918   -0.088096     0.9532    0.3322    1.5442    0.0006
   -2.8534     0.1645    -0.216    0.074006    0.016090    0.000279   -0.152775   -0.093823     0.9501    0.3144    1.5099    0.0070
   -2.7318     0.1729    -0.140    0.076949    0.015722    0.000188   -0.155127   -0.094723     0.9472    0.3217    1.4734    0.0302
   -2.5771     0.1836    -0.115    0.078652    0.015350    0.000158   -0.155248   -0.094882     0.9443    0.3002    1.4489    0.0855
   -2.3952     0.1961    -0.110    0.079466    0.015082    0.000152   -0.154254   -0.094924     0.9438    0.2522    1.4372    0.1908
   -2.1931     0.2101    -0.114    0.079630    0.014701    0.000158   -0.152724   -0.094936     0.9405    0.2096    1.4348    0.3629
   -1.9785     0.2249    -0.125    0.079341    0.014319    0.000174   -0.150923   -0.094937     0.9377    0.1676    1.4391    0.6137
   -1.7597     0.2401    -0.144    0.078752    0.013926    0.000198   -0.149061   -0.094932     0.9384    0.1582    1.4479    0.9463
   -1.5451     0.2549    -0.167    0.077995    0.013513    0.000228   -0.147283   -0.094923     0.9372    0.1514    1.4594    1.3526
   -1.3430     0.2689    -0.192    0.077204    0.013162    0.000260   -0.145683   -0.094913     0.9362    0.1441    1.4716    1.8115
   -1.1611     0.2814    -0.205    0.076517    0.012887    0.000275   -0.144350   -0.094898     0.9356    0.1358    1.4822    2.2904
   -1.0064     0.2921    -0.183    0.076047    0.012669    0.000244   -0.143338   -0.094866     0.9352    0.1275    1.4893    2.7487
   -0.8848     0.3005    -0.120    0.075835    0.012509    0.000161   -0.142619   -0.094779     0.9350    0.1205    1.4915    3.1427
   -0.8011     0.3063    -0.055    0.075797    0.012395    0.000076   -0.142084   -0.094595     0.9354    0.1181    1.4896    3.4318
   -0.7584     0.3093    -0.037    0.075726    0.012337    0.000052   -0.141680   -0.094400     0.9357    0.1172    1.4882    3.5848
   -0.7119     0.3100     0.031    0.075735    0.012324   -0.000041   -0.142026   -0.094789     0.9357    0.1170    1.4931    3.7538
   -0.5828     0.3100     0.223    0.075065    0.012333   -0.000292   -0.141931   -0.095121     0.9359    0.1167    1.5086    4.2432
   -0.3738     0.3100     0.395    0.074453    0.012341   -0.000514   -0.141630   -0.095210     0.9360    0.1164    1.5201    5.1172
   -0.1648     0.3100     0.453    0.074179    0.012344   -0.000586   -0.141482   -0.095237     0.9361    0.1163    1.5251    6.0917
   -0.0357     0.3100     0.461    0.074132    0.012345   -0.000597   -0.141457   -0.095242     0.9361    0.1162    1.5260    6.7442
    0.0357     0.3100     0.461    0.074132    0.012345   -0.000597   -0.141457   -0.095242     0.9361    0.1162    1.5260    6.7457
    0.1648     0.3100     0.453    0.074179    0.012344   -0.000586   -0.141482   -0.095237     0.9361    0.1163    1.5251    6.0932
    0.3738     0.3100     0.395    0.074453    0.012341   -0.000514   -0.141630   -0.095210     0.9360    0.1164    1.5201    5.1186
    0.5828     0.3100     0.223    0.075065    0.012333   -0.000292   -0.141931   -0.095121     0.9359    0.1167    1.5086    4.2447
    0.7119     0.3100     0.031    0.075735    0.012324   -0.000041   -0.142026   -0.094789     0.9357    0.1170    1.4931    3.7553
    0.7584     0.3093    -0.037    0.075726    0.012337    0.000052   -0.141680   -0.094400     0.9357    0.1172    1.4882    3.5861
    0.8011     0.3063    -0.055    0.075797    0.012395    0.000076   -0.142084   -0.094595     0.9354    0.1181    1.4896    3.4328
    0.8848     0.3005    -0.120    0.075835    0.012509    0.000161   -0.142619   -0.094779     0.9350    0.1205    1.4915    3.1433
    1.0064     0.2921    -0.183    0.076047    0.012669    0.000244   -0.143338   -0.094866     0.9352    0.1275    1.4893    2.7491
    1.1611     0.2814    -0.205    0.076517    0.012887    0.000275   -0.144350   -0.094898     0.9356    0.1358    1.4822    2.2905
    1.3430     0.2689    -0.192    0.077204    0.013162    0.000260   -0.145683   -0.094913     0.9362    0.1441    1.4716    1.8115
    1.5451     0.2549    -0.167    0.077995    0.013513    0.000228   -0.147283   -0.094923     0.9372    0.1514    1.4594    1.3525
    1.7597     0.2401    -0.144    0.078752    0.013926    0.000198   -0.149061   -0.094932     0.9384    0.1582    1.4479    0.9462
    1.9785     0.2249    -0.125    0.079341    0.014319    0.000174   -0.150923   -0.094937     0.9377    0.1676    1.4391    0.6135
    2.1931     0.2101    -0.114    0.079630    0.014701    0.000158   -0.152724   -0.094936     0.9405    0.2096    1.4348    0.3628
    2.3952     0.1961    -0.110    0.079466    0.015082    0.000152   -0.154254   -0.094924     0.9438    0.2522    1.4372    0.1907
    2.5771     0.1836    -0.115    0.078652    0.015350    0.000158   -0.155248   -0.094882     0.9443    0.3002    1.4489    0.0855
    2.7318     0.1729    -0.140    0.076949    0.015722    0.000188   -0.155127   -0.094723     0.9472    0.3217    1.4734    0.0302
    2.8534     0.1645    -0.216    0.074006    0.016090    0.000279   -0.152775   -0.093823     0.9501    0.3144    1.5099    0.0070
    2.9371     0.1587    -0.447    0.067652    0.016356    0.000528   -0.141918   -0.088096     0.9532    0.3322    1.5442    0.0006
    2.9798     0.1557    -0.927    0.048984    0.016711    0.000793   -0.100808   -0.064555     0.9578    0.3434    1.5599    0.0000


Horizontal Stabilizer
  y-span        Chord      Ai         Cl        PCd          ICd        CmGeom    CmAirf@chord/4    XTrtop    XTrBot      XCP       BM
   -0.7457     0.1250     3.115   -0.163558    0.013835    0.008900    1.478813   -0.009004     1.0000    0.9610    0.1948    0.0000
   -0.7382     0.1250     2.990   -0.278992    0.013448    0.014572    2.479919   -0.013635     1.0000    0.9126    0.2010   -0.0001
   -0.7232     0.1250     2.786   -0.392632    0.012885    0.019108    3.467919   -0.014953     1.0000    0.7734    0.2118   -0.0007
   -0.7011     0.1250     2.524   -0.492446    0.013847    0.021708    4.344745   -0.013426     1.0000    0.5304    0.2227   -0.0035
   -0.6723     0.1250     2.231   -0.575240    0.016933    0.022408    5.083562   -0.010659     1.0000    0.2379    0.2314   -0.0111
   -0.6375     0.1250     1.939   -0.641053    0.020799    0.021705    5.677556   -0.007906     1.0000    0.1330    0.2376   -0.0276
   -0.5973     0.1250     1.676   -0.691868    0.023908    0.020239    6.136809   -0.005706     1.0000    0.1033    0.2417   -0.0576
   -0.5525     0.1250     1.453   -0.730425    0.026561    0.018521    6.486480   -0.004118     1.0000    0.0895    0.2443   -0.1058
   -0.5041     0.1250     1.272   -0.759405    0.028852    0.016858    6.750490   -0.003022     1.0000    0.0821    0.2460   -0.1765
   -0.4531     0.1250     1.129   -0.781072    0.030760    0.015392    6.948666   -0.002276     1.0000    0.0783    0.2470   -0.2729
   -0.4004     0.1250     1.018   -0.797209    0.032734    0.014169    7.098620   -0.001770     1.0000    0.0755    0.2477   -0.3965
   -0.3472     0.1250     0.934   -0.809166    0.034604    0.013187    7.211478   -0.001425     1.0000    0.0734    0.2482   -0.5467
   -0.2946     0.1250     0.870   -0.817949    0.035978    0.012423    7.294364   -0.001189     1.0000    0.0720    0.2485   -0.7209
   -0.2435     0.1250     0.823   -0.824308    0.036981    0.011847    7.354406   -0.001029     1.0000    0.0708    0.2487   -0.9142
   -0.1951     0.1250     0.790   -0.828808    0.037847    0.011426    7.397562   -0.000920     1.0000    0.0698    0.2489   -1.1199
   -0.1504     0.1250     0.767   -0.831882    0.038442    0.011133    7.427068   -0.000848     1.0000    0.0691    0.2489   -1.3296
   -0.1102     0.1250     0.752   -0.833877    0.038830    0.010941    7.446210   -0.000802     1.0000    0.0686    0.2490   -1.5341
   -0.0753     0.1250     0.743   -0.835075    0.039062    0.010824    7.457711   -0.000775     1.0000    0.0683    0.2490   -1.7237
   -0.0466     0.1250     0.738   -0.835716    0.039187    0.010761    7.463866   -0.000761     1.0000    0.0682    0.2491   -1.8888
   -0.0245     0.1250     0.736   -0.836002    0.039242    0.010734    7.466603   -0.000754     1.0000    0.0681    0.2491   -2.0209
   -0.0095     0.1250     0.735   -0.836092    0.039260    0.010724    7.467474   -0.000752     1.0000    0.0681    0.2491   -2.1132
   -0.0019     0.1250     0.735   -0.836105    0.039262    0.010723    7.467596   -0.000752     1.0000    0.0681    0.2491   -2.1606
    0.0019     0.1250     0.735   -0.836105    0.039262    0.010723    7.467596   -0.000752     1.0000    0.0681    0.2491   -2.1606
    0.0095     0.1250     0.735   -0.836092    0.039260    0.010724    7.467474   -0.000752     1.0000    0.0681    0.2491   -2.1132
    0.0245     0.1250     0.736   -0.836002    0.039242    0.010734    7.466603   -0.000754     1.0000    0.0681    0.2491   -2.0209
    0.0466     0.1250     0.738   -0.835716    0.039187    0.010761    7.463866   -0.000761     1.0000    0.0682    0.2491   -1.8888
    0.0753     0.1250     0.743   -0.835075    0.039062    0.010824    7.457711   -0.000775     1.0000    0.0683    0.2490   -1.7237
    0.1102     0.1250     0.752   -0.833877    0.038830    0.010941    7.446210   -0.000802     1.0000    0.0686    0.2490   -1.5341
    0.1504     0.1250     0.767   -0.831882    0.038442    0.011133    7.427068   -0.000848     1.0000    0.0691    0.2489   -1.3296
    0.1951     0.1250     0.790   -0.828808    0.037847    0.011426    7.397562   -0.000920     1.0000    0.0698    0.2489   -1.1199
    0.2435     0.1250     0.823   -0.824308    0.036981    0.011847    7.354406   -0.001029     1.0000    0.0708    0.2487   -0.9142
    0.2946     0.1250     0.870   -0.817949    0.035978    0.012423    7.294364   -0.001189     1.0000    0.0720    0.2485   -0.7209
    0.3472     0.1250     0.934   -0.809166    0.034604    0.013187    7.211478   -0.001425     1.0000    0.0734    0.2482   -0.5467
    0.4004     0.1250     1.018   -0.797209    0.032734    0.014169    7.098620   -0.001770     1.0000    0.0755    0.2477   -0.3965
    0.4531     0.1250     1.129   -0.781072    0.030760    0.015392    6.948666   -0.002276     1.0000    0.0783    0.2470   -0.2729
    0.5041     0.1250     1.272   -0.759405    0.028852    0.016858    6.750490   -0.003022     1.0000    0.0821    0.2460   -0.1765
    0.5525     0.1250     1.453   -0.730425    0.026561    0.018521    6.486480   -0.004118     1.0000    0.0895    0.2443   -0.1058
    0.5973     0.1250     1.676   -0.691868    0.023908    0.020239    6.136809   -0.005706     1.0000    0.1033    0.2417   -0.0576
    0.6375     0.1250     1.939   -0.641053    0.020799    0.021705    5.677556   -0.007906     1.0000    0.1330    0.2376   -0.0276
    0.6723     0.1250     2.231   -0.575240    0.016933    0.022408    5.083562   -0.010659     1.0000    0.2379    0.2314   -0.0111
    0.7011     0.1250     2.524   -0.492446    0.013847    0.021708    4.344745   -0.013426     1.0000    0.5304    0.2227   -0.0035
    0.7232     0.1250     2.786   -0.392632    0.012885    0.019108    3.467919   -0.014953     1.0000    0.7734    0.2118   -0.0007
    0.7382     0.1250     2.990   -0.278992    0.013448    0.014572    2.479919   -0.013635     1.0000    0.9126    0.2010   -0.0001
    0.7457     0.1250     3.115   -0.163558    0.013835    0.008900    1.478813   -0.009004     1.0000    0.9610    0.1948    0.0000


Vertical Stabilizer (XFLR5)
  y-span        Chord      Ai         Cl        PCd          ICd        CmGeom    CmAirf@chord/4    XTrtop    XTrBot      XCP       BM
   -0.3989     0.1254     0.000    0.000000    0.013412   -0.000000    0.058266    0.000000     1.0000    0.9985   -0.2193    0.0000
   -0.3948     0.1269     0.000    0.000000    0.013351   -0.000000    0.056880    0.000000     1.0000    0.9985    0.0427    0.0000
   -0.3868     0.1299     0.000    0.000000    0.013230   -0.000000    0.054244    0.000000     1.0000    0.9987    0.1596    0.0000
   -0.3750     0.1343     0.000    0.000000    0.013052   -0.000000    0.050598    0.000000     1.0000    0.9989    0.2079    0.0000
   -0.3596     0.1401     0.000    0.000000    0.012820   -0.000000    0.046244    0.000000     1.0000    0.9991    0.2297    0.0000
   -0.3410     0.1471     0.000    0.000000    0.012539   -0.000000    0.041492    0.000000     1.0000    0.9994    0.2365    0.0000
   -0.3195     0.1551     0.000    0.000000    0.012215   -0.000000    0.036624    0.000000     1.0000    0.9998    0.2417    0.0000
   -0.2955     0.1641     0.000    0.000000    0.011906   -0.000000    0.032006    0.000000     1.0000    1.0000    0.2421    0.0000
   -0.2696     0.1738     0.000    0.000000    0.011670   -0.000000    0.027881    0.000000     1.0000    1.0000    0.2416    0.0000
   -0.2423     0.1841     0.000    0.000000    0.011436   -0.000000    0.024103    0.000000     1.0000    1.0000    0.2394    0.0000
   -0.2142     0.1946     0.000    0.000000    0.011221   -0.000000    0.020740    0.000000     1.0000    1.0000    0.2376    0.0000
   -0.1857     0.2053     0.000    0.000000    0.011021   -0.000000    0.017782    0.000000     1.0000    1.0000    0.2351    0.0000
   -0.1576     0.2158     0.000    0.000000    0.010810   -0.000000    0.015176    0.000000     0.9970    0.9970    0.2319    0.0000
   -0.1302     0.2261     0.000    0.000000    0.010570   -0.000000    0.012888    0.000000     0.9903    0.9903    0.2278    0.0000
   -0.1044     0.2358     0.000    0.000000    0.010321   -0.000000    0.010932    0.000000     0.9838    0.9838    0.2236    0.0000
   -0.0804     0.2447     0.000    0.000000    0.010103   -0.000000    0.009319    0.000000     0.9792    0.9792    0.2200   -0.0000
   -0.0589     0.2528     0.000    0.000000    0.009891   -0.000000    0.007990    0.000000     0.9744    0.9744    0.2143   -0.0000
   -0.0403     0.2598     0.000    0.000000    0.009711   -0.000000    0.006935    0.000000     0.9708    0.9707    0.2075   -0.0000
   -0.0249     0.2656     0.000    0.000000    0.009565   -0.000000    0.006128    0.000000     0.9682    0.9682    0.2034   -0.0000
   -0.0131     0.2700     0.000    0.000000    0.009453   -0.000000    0.005542    0.000000     0.9664    0.9664    0.1925   -0.0000
   -0.0051     0.2730    -0.000    0.000000    0.009380    0.000000    0.005163    0.000000     0.9653    0.9653    0.1854   -0.0000
   -0.0010     0.2745    -0.000    0.000000    0.009343    0.000000    0.004976    0.000000     0.9648    0.9648    0.1832   -0.0000


Main Wing Cp Coefficients
 Panel     CtrlPt.x        CtrlPt.y        CtrlPt.z       Nx      Ny       Nz        Area       Cp
Main WingCp Coefficients
Strip 1
   0       1.545e-01      -2.979e+00       6.771e-02           0.212           0.024           0.977       6.929e-05          0.1355
   1       1.499e-01      -2.979e+00       6.868e-02           0.197           0.025           0.980       2.016e-04          0.1789
   2       1.394e-01      -2.979e+00       7.069e-02           0.173           0.027           0.985       3.163e-04          0.1825
   3       1.239e-01      -2.979e+00       7.331e-02           0.152           0.028           0.988       4.049e-04          0.1939
   4       1.046e-01      -2.978e+00       7.611e-02           0.125           0.030           0.992       4.601e-04          0.1912
   5       8.324e-02      -2.978e+00       7.864e-02           0.095           0.031           0.995       4.779e-04          0.1675
   6       6.139e-02      -2.978e+00       8.057e-02           0.066           0.032           0.997       4.574e-04          0.1311
   7       4.086e-02      -2.978e+00       8.178e-02           0.036           0.032           0.999       4.004e-04          0.0770
   8       2.331e-02      -2.978e+00       8.226e-02          -0.003           0.033           0.999       3.115e-04         -0.0619
   9       1.018e-02      -2.978e+00       8.211e-02          -0.055           0.033           0.998       1.979e-04         -0.4619
  10       2.514e-03      -2.978e+00       8.159e-02          -0.178           0.033           0.984       6.880e-05         -2.2460
Strip 2
  11       1.574e-01      -2.936e+00       6.603e-02           0.212           0.024           0.977       2.091e-04          0.1620
  12       1.527e-01      -2.936e+00       6.702e-02           0.197           0.025           0.980       6.084e-04          0.2283
  13       1.420e-01      -2.936e+00       6.907e-02           0.173           0.027           0.985       9.546e-04          0.2541
  14       1.262e-01      -2.936e+00       7.173e-02           0.152           0.028           0.988       1.222e-03          0.2788
  15       1.066e-01      -2.936e+00       7.459e-02           0.125           0.030           0.992       1.388e-03          0.2767
  16       8.482e-02      -2.936e+00       7.717e-02           0.095           0.031           0.995       1.442e-03          0.2380
  17       6.255e-02      -2.936e+00       7.913e-02           0.066           0.032           0.997       1.380e-03          0.1696
  18       4.163e-02      -2.936e+00       8.036e-02           0.036           0.032           0.999       1.208e-03          0.0625
  19       2.376e-02      -2.936e+00       8.086e-02          -0.003           0.033           0.999       9.401e-04         -0.1502
  20       1.037e-02      -2.936e+00       8.070e-02          -0.055           0.033           0.998       5.973e-04         -0.6362
  21       2.561e-03      -2.936e+00       8.017e-02          -0.178           0.033           0.984       2.076e-04         -2.6264
Strip 3
  22       1.632e-01      -2.852e+00       6.273e-02           0.212           0.024           0.977       3.519e-04          0.1695
  23       1.583e-01      -2.852e+00       6.376e-02           0.197           0.025           0.980       1.024e-03          0.2414
  24       1.472e-01      -2.852e+00       6.589e-02           0.173           0.027           0.985       1.607e-03          0.2730
  25       1.308e-01      -2.852e+00       6.865e-02           0.152           0.028           0.988       2.057e-03          0.3016
  26       1.105e-01      -2.852e+00       7.161e-02           0.125           0.030           0.992       2.337e-03          0.2992
  27       8.791e-02      -2.852e+00       7.428e-02           0.095           0.031           0.995       2.427e-03          0.2549
  28       6.483e-02      -2.852e+00       7.631e-02           0.066           0.032           0.997       2.323e-03          0.1765
  29       4.315e-02      -2.852e+00       7.759e-02           0.036           0.032           0.999       2.034e-03          0.0577
  30       2.462e-02      -2.852e+00       7.811e-02          -0.003           0.033           0.999       1.582e-03         -0.1663
  31       1.075e-02      -2.852e+00       7.794e-02          -0.055           0.033           0.998       1.005e-03         -0.6670
  32       2.655e-03      -2.852e+00       7.739e-02          -0.178           0.033           0.984       3.494e-04         -2.6990
Strip 4
  33       1.715e-01      -2.731e+00       5.795e-02           0.212           0.024           0.977       4.978e-04          0.1710
  34       1.663e-01      -2.731e+00       5.903e-02           0.197           0.025           0.980       1.448e-03          0.2440
  35       1.547e-01      -2.731e+00       6.126e-02           0.173           0.027           0.985       2.273e-03          0.2766
  36       1.375e-01      -2.731e+00       6.416e-02           0.152           0.028           0.988       2.909e-03          0.3059
  37       1.162e-01      -2.731e+00       6.728e-02           0.125           0.030           0.992       3.305e-03          0.3036
  38       9.240e-02      -2.731e+00       7.008e-02           0.095           0.031           0.995       3.433e-03          0.2587
  39       6.814e-02      -2.731e+00       7.222e-02           0.066           0.032           0.997       3.286e-03          0.1794
  40       4.535e-02      -2.730e+00       7.357e-02           0.036           0.032           0.999       2.877e-03          0.0597
  41       2.588e-02      -2.730e+00       7.411e-02          -0.003           0.033           0.999       2.238e-03         -0.1651
  42       1.130e-02      -2.730e+00       7.393e-02          -0.055           0.033           0.998       1.422e-03         -0.6664
  43       2.790e-03      -2.730e+00       7.335e-02          -0.178           0.033           0.984       4.943e-04         -2.6989
Strip 5
  44       1.821e-01      -2.576e+00       5.186e-02           0.212           0.024           0.977       6.441e-04          0.1713
  45       1.766e-01      -2.576e+00       5.300e-02           0.197           0.025           0.980       1.874e-03          0.2447
  46       1.643e-01      -2.576e+00       5.538e-02           0.173           0.027           0.985       2.940e-03          0.2776
  47       1.460e-01      -2.576e+00       5.846e-02           0.152           0.028           0.988       3.764e-03          0.3071
  48       1.233e-01      -2.576e+00       6.177e-02           0.125           0.030           0.992       4.277e-03          0.3049
  49       9.812e-02      -2.576e+00       6.475e-02           0.095           0.031           0.995       4.442e-03          0.2603
  50       7.236e-02      -2.576e+00       6.702e-02           0.066           0.032           0.997       4.252e-03          0.1811
  51       4.816e-02      -2.576e+00       6.844e-02           0.036           0.032           0.999       3.722e-03          0.0615
  52       2.748e-02      -2.576e+00       6.902e-02          -0.003           0.033           0.999       2.896e-03         -0.1629
  53       1.200e-02      -2.576e+00       6.883e-02          -0.055           0.033           0.998       1.840e-03         -0.6630
  54       2.963e-03      -2.576e+00       6.822e-02          -0.178           0.033           0.984       6.395e-04         -2.6914
Strip 6
  55       1.946e-01      -2.395e+00       4.470e-02           0.212           0.024           0.977       7.851e-04          0.1715
  56       1.887e-01      -2.395e+00       4.592e-02           0.197           0.025           0.980       2.284e-03          0.2449
  57       1.755e-01      -2.394e+00       4.846e-02           0.173           0.027           0.985       3.584e-03          0.2779
  58       1.560e-01      -2.394e+00       5.175e-02           0.152           0.028           0.988       4.588e-03          0.3075
  59       1.318e-01      -2.394e+00       5.528e-02           0.125           0.030           0.992       5.213e-03          0.3055
  60       1.048e-01      -2.394e+00       5.847e-02           0.095           0.031           0.995       5.415e-03          0.2609
  61       7.731e-02      -2.394e+00       6.089e-02           0.066           0.032           0.997       5.183e-03          0.1819
  62       5.146e-02      -2.394e+00       6.242e-02           0.036           0.032           0.999       4.538e-03          0.0625
  63       2.936e-02      -2.394e+00       6.303e-02          -0.003           0.033           0.999       3.530e-03         -0.1616
  64       1.282e-02      -2.394e+00       6.284e-02          -0.055           0.033           0.998       2.243e-03         -0.6611
  65       3.166e-03      -2.394e+00       6.218e-02          -0.178           0.033           0.984       7.796e-04         -2.6870
Strip 7
  66       2.084e-01      -2.193e+00       3.674e-02           0.212           0.024           0.977       9.126e-04          0.1715
  67       2.022e-01      -2.193e+00       3.805e-02           0.197           0.025           0.980       2.655e-03          0.2450
  68       1.880e-01      -2.192e+00       4.077e-02           0.173           0.027           0.985       4.166e-03          0.2780
  69       1.671e-01      -2.192e+00       4.430e-02           0.152           0.028           0.988       5.333e-03          0.3076
  70       1.412e-01      -2.192e+00       4.808e-02           0.125           0.030           0.992       6.060e-03          0.3056
  71       1.123e-01      -2.192e+00       5.149e-02           0.095           0.031           0.995       6.294e-03          0.2611
  72       8.282e-02      -2.192e+00       5.409e-02           0.066           0.032           0.997       6.025e-03          0.1821
  73       5.512e-02      -2.192e+00       5.572e-02           0.036           0.032           0.999       5.274e-03          0.0627
  74       3.145e-02      -2.192e+00       5.638e-02          -0.003           0.033           0.999       4.103e-03         -0.1614
  75       1.373e-02      -2.192e+00       5.617e-02          -0.055           0.033           0.998       2.607e-03         -0.6607
  76       3.391e-03      -2.192e+00       5.547e-02          -0.178           0.033           0.984       9.061e-04         -2.6863
Strip 8
  77       2.231e-01      -1.978e+00       2.829e-02           0.212           0.024           0.977       1.016e-03          0.1715
  78       2.164e-01      -1.978e+00       2.970e-02           0.197           0.025           0.980       2.956e-03          0.2449
  79       2.013e-01      -1.978e+00       3.261e-02           0.173           0.027           0.985       4.638e-03          0.2779
  80       1.789e-01      -1.978e+00       3.638e-02           0.152           0.028           0.988       5.938e-03          0.3075
  81       1.511e-01      -1.978e+00       4.044e-02           0.125           0.030           0.992       6.746e-03          0.3055
  82       1.202e-01      -1.978e+00       4.409e-02           0.095           0.031           0.995       7.008e-03          0.2609
  83       8.866e-02      -1.978e+00       4.687e-02           0.066           0.032           0.997       6.708e-03          0.1818
  84       5.901e-02      -1.978e+00       4.862e-02           0.036           0.032           0.999       5.872e-03          0.0623
  85       3.367e-02      -1.978e+00       4.932e-02          -0.003           0.033           0.999       4.568e-03         -0.1619
  86       1.470e-02      -1.978e+00       4.910e-02          -0.055           0.033           0.998       2.902e-03         -0.6616
  87       3.630e-03      -1.978e+00       4.834e-02          -0.178           0.033           0.984       1.009e-03         -2.6883
Strip 9
  88       2.381e-01      -1.759e+00       1.968e-02           0.212           0.024           0.977       1.084e-03          0.1714
  89       2.310e-01      -1.759e+00       2.118e-02           0.197           0.025           0.980       3.155e-03          0.2448
  90       2.148e-01      -1.759e+00       2.428e-02           0.173           0.027           0.985       4.950e-03          0.2777
  91       1.909e-01      -1.759e+00       2.831e-02           0.152           0.028           0.988       6.337e-03          0.3073
  92       1.613e-01      -1.759e+00       3.264e-02           0.125           0.030           0.992       7.200e-03          0.3051
  93       1.283e-01      -1.759e+00       3.654e-02           0.095           0.031           0.995       7.479e-03          0.2605
  94       9.462e-02      -1.759e+00       3.951e-02           0.066           0.032           0.997       7.159e-03          0.1813
  95       6.298e-02      -1.759e+00       4.137e-02           0.036           0.032           0.999       6.267e-03          0.0616
  96       3.594e-02      -1.759e+00       4.212e-02          -0.003           0.033           0.999       4.875e-03         -0.1628
  97       1.569e-02      -1.759e+00       4.188e-02          -0.055           0.033           0.998       3.097e-03         -0.6632
  98       3.875e-03      -1.759e+00       4.108e-02          -0.178           0.033           0.984       1.077e-03         -2.6921
Strip 10
  99       2.529e-01      -1.545e+00       1.123e-02           0.212           0.024           0.977       1.107e-03          0.1714
 100       2.452e-01      -1.545e+00       1.282e-02           0.197           0.025           0.980       3.221e-03          0.2446
 101       2.281e-01      -1.545e+00       1.612e-02           0.173           0.027           0.985       5.054e-03          0.2775
 102       2.027e-01      -1.545e+00       2.040e-02           0.152           0.028           0.988       6.469e-03          0.3069
 103       1.713e-01      -1.545e+00       2.499e-02           0.125           0.030           0.992       7.351e-03          0.3047
 104       1.362e-01      -1.545e+00       2.913e-02           0.095           0.031           0.995       7.635e-03          0.2599
 105       1.005e-01      -1.545e+00       3.228e-02           0.066           0.032           0.997       7.309e-03          0.1806
 106       6.687e-02      -1.545e+00       3.427e-02           0.036           0.032           0.999       6.398e-03          0.0607
 107       3.816e-02      -1.544e+00       3.506e-02          -0.003           0.033           0.999       4.978e-03         -0.1641
 108       1.666e-02      -1.544e+00       3.481e-02          -0.055           0.033           0.998       3.162e-03         -0.6653
 109       4.114e-03      -1.545e+00       3.395e-02          -0.178           0.033           0.984       1.099e-03         -2.6970
Strip 11
 110       2.667e-01      -1.343e+00       3.277e-03           0.212           0.024           0.977       1.076e-03          0.1713
 111       2.587e-01      -1.343e+00       4.953e-03           0.197           0.025           0.980       3.131e-03          0.2445
 112       2.406e-01      -1.343e+00       8.431e-03           0.173           0.027           0.985       4.913e-03          0.2772
 113       2.138e-01      -1.343e+00       1.295e-02           0.152           0.028           0.988       6.289e-03          0.3066
 114       1.807e-01      -1.343e+00       1.779e-02           0.125           0.030           0.992       7.146e-03          0.3042
 115       1.437e-01      -1.343e+00       2.216e-02           0.095           0.031           0.995       7.422e-03          0.2593
 116       1.060e-01      -1.343e+00       2.548e-02           0.066           0.032           0.997       7.105e-03          0.1799
 117       7.053e-02      -1.342e+00       2.757e-02           0.036           0.032           0.999       6.220e-03          0.0598
 118       4.025e-02      -1.342e+00       2.841e-02          -0.003           0.033           0.999       4.839e-03         -0.1654
 119       1.757e-02      -1.342e+00       2.814e-02          -0.055           0.033           0.998       3.074e-03         -0.6674
 120       4.339e-03      -1.343e+00       2.724e-02          -0.178           0.033           0.984       1.069e-03         -2.7021
Strip 12
 121       2.792e-01      -1.161e+00      -3.885e-03           0.212           0.024           0.977       9.873e-04          0.1712
 122       2.708e-01      -1.161e+00      -2.130e-03           0.197           0.025           0.980       2.872e-03          0.2444
 123       2.518e-01      -1.161e+00       1.511e-03           0.173           0.027           0.985       4.507e-03          0.2770
 124       2.238e-01      -1.161e+00       6.238e-03           0.152           0.028           0.988       5.770e-03          0.3062
 125       1.891e-01      -1.161e+00       1.131e-02           0.125           0.030           0.992       6.556e-03          0.3038
 126       1.504e-01      -1.161e+00       1.588e-02           0.095           0.031           0.995       6.810e-03          0.2588
 127       1.109e-01      -1.161e+00       1.936e-02           0.066           0.032           0.997       6.519e-03          0.1792
 128       7.383e-02      -1.161e+00       2.155e-02           0.036           0.032           0.999       5.707e-03          0.0590
 129       4.213e-02      -1.161e+00       2.243e-02          -0.003           0.033           0.999       4.439e-03         -0.1665
 130       1.839e-02      -1.161e+00       2.215e-02          -0.055           0.033           0.998       2.821e-03         -0.6692
 131       4.542e-03      -1.161e+00       2.120e-02          -0.178           0.033           0.984       9.804e-04         -2.7064
Strip 13
 132       2.898e-01      -1.007e+00      -9.975e-03           0.212           0.024           0.977       8.410e-04          0.1712
 133       2.811e-01      -1.007e+00      -8.153e-03           0.197           0.025           0.980       2.447e-03          0.2442
 134       2.614e-01      -1.006e+00      -4.374e-03           0.173           0.027           0.985       3.840e-03          0.2768
 135       2.323e-01      -1.006e+00       5.324e-04           0.152           0.028           0.988       4.915e-03          0.3059
 136       1.963e-01      -1.006e+00       5.796e-03           0.125           0.030           0.992       5.585e-03          0.3034
 137       1.561e-01      -1.006e+00       1.054e-02           0.095           0.031           0.995       5.801e-03          0.2584
 138       1.151e-01      -1.006e+00       1.415e-02           0.066           0.032           0.997       5.553e-03          0.1788
 139       7.663e-02      -1.006e+00       1.642e-02           0.036           0.032           0.999       4.861e-03          0.0586
 140       4.373e-02      -1.006e+00       1.734e-02          -0.003           0.033           0.999       3.782e-03         -0.1671
 141       1.909e-02      -1.006e+00       1.704e-02          -0.055           0.033           0.998       2.403e-03         -0.6703
 142       4.715e-03      -1.006e+00       1.606e-02          -0.178           0.033           0.984       8.352e-04         -2.7090
Strip 14
 143       2.981e-01      -8.851e-01      -1.476e-02           0.212           0.024           0.977       6.429e-04          0.1710
 144       2.892e-01      -8.851e-01      -1.289e-02           0.197           0.025           0.980       1.870e-03          0.2440
 145       2.689e-01      -8.850e-01      -8.998e-03           0.173           0.027           0.985       2.935e-03          0.2764
 146       2.390e-01      -8.849e-01      -3.950e-03           0.152           0.028           0.988       3.757e-03          0.3055
 147       2.019e-01      -8.848e-01       1.465e-03           0.125           0.030           0.992       4.269e-03          0.3031
 148       1.606e-01      -8.847e-01       6.344e-03           0.095           0.031           0.995       4.435e-03          0.2581
 149       1.185e-01      -8.846e-01       1.006e-02           0.066           0.032           0.997       4.245e-03          0.1787
 150       7.884e-02      -8.846e-01       1.240e-02           0.036           0.032           0.999       3.716e-03          0.0585
 151       4.499e-02      -8.846e-01       1.334e-02          -0.003           0.033           0.999       2.891e-03         -0.1671
 152       1.964e-02      -8.846e-01       1.304e-02          -0.055           0.033           0.998       1.837e-03         -0.6702
 153       4.850e-03      -8.846e-01       1.203e-02          -0.178           0.033           0.984       6.384e-04         -2.7090
Strip 15
 154       3.039e-01      -8.014e-01      -1.806e-02           0.212           0.024           0.977       4.035e-04          0.1707
 155       2.947e-01      -8.014e-01      -1.615e-02           0.197           0.025           0.980       1.174e-03          0.2434
 156       2.741e-01      -8.013e-01      -1.218e-02           0.173           0.027           0.985       1.842e-03          0.2757
 157       2.436e-01      -8.012e-01      -7.038e-03           0.152           0.028           0.988       2.358e-03          0.3048
 158       2.058e-01      -8.011e-01      -1.518e-03           0.125           0.030           0.992       2.680e-03          0.3026
 159       1.637e-01      -8.010e-01       3.455e-03           0.095           0.031           0.995       2.783e-03          0.2579
 160       1.207e-01      -8.010e-01       7.245e-03           0.066           0.032           0.997       2.664e-03          0.1788
 161       8.036e-02      -8.009e-01       9.625e-03           0.036           0.032           0.999       2.332e-03          0.0589
 162       4.585e-02      -8.009e-01       1.058e-02          -0.003           0.033           0.999       1.814e-03         -0.1663
 163       2.002e-02      -8.009e-01       1.028e-02          -0.055           0.033           0.998       1.153e-03         -0.6690
 164       4.944e-03      -8.009e-01       9.247e-03          -0.178           0.033           0.984       4.007e-04         -2.7063
Strip 16
 165       3.068e-01      -7.588e-01      -1.974e-02           0.212           0.024           0.977       1.376e-04          0.1696
 166       2.976e-01      -7.587e-01      -1.781e-02           0.197           0.025           0.980       4.002e-04          0.2421
 167       2.767e-01      -7.587e-01      -1.381e-02           0.173           0.027           0.985       6.280e-04          0.2748
 168       2.460e-01      -7.586e-01      -8.612e-03           0.152           0.028           0.988       8.040e-04          0.3043
 169       2.078e-01      -7.585e-01      -3.039e-03           0.125           0.030           0.992       9.135e-04          0.3024
 170       1.653e-01      -7.584e-01       1.982e-03           0.095           0.031           0.995       9.489e-04          0.2579
 171       1.219e-01      -7.583e-01       5.809e-03           0.066           0.032           0.997       9.083e-04          0.1788
 172       8.113e-02      -7.583e-01       8.211e-03           0.036           0.032           0.999       7.951e-04          0.0591
 173       4.629e-02      -7.583e-01       9.178e-03          -0.003           0.033           0.999       6.186e-04         -0.1659
 174       2.021e-02      -7.583e-01       8.869e-03          -0.055           0.033           0.998       3.930e-04         -0.6680
 175       4.991e-03      -7.583e-01       7.830e-03          -0.178           0.033           0.984       1.366e-04         -2.7026
Strip 17
 176       3.075e-01      -7.123e-01      -2.016e-02           0.212           0.000           0.977       4.571e-04          0.1709
 177       2.983e-01      -7.122e-01      -1.823e-02           0.197           0.000           0.980       1.330e-03          0.2436
 178       2.774e-01      -7.122e-01      -1.422e-02           0.173           0.000           0.985       2.087e-03          0.2760
 179       2.466e-01      -7.121e-01      -9.009e-03           0.152           0.000           0.988       2.671e-03          0.3052
 180       2.083e-01      -7.120e-01      -3.423e-03           0.125           0.000           0.992       3.034e-03          0.3030
 181       1.657e-01      -7.119e-01       1.610e-03           0.095           0.000           0.995       3.151e-03          0.2582
 182       1.222e-01      -7.119e-01       5.446e-03           0.066           0.000           0.998       3.016e-03          0.1788
 183       8.133e-02      -7.118e-01       7.855e-03           0.036          -0.000           0.999       2.640e-03          0.0585
 184       4.640e-02      -7.118e-01       8.824e-03          -0.003          -0.000           1.000       2.054e-03         -0.1673
 185       2.026e-02      -7.118e-01       8.514e-03          -0.055          -0.000           0.998       1.305e-03         -0.6707
 186       5.003e-03      -7.118e-01       7.472e-03          -0.178          -0.000           0.984       4.536e-04         -2.7100
Strip 18
 187       3.075e-01      -5.831e-01      -2.016e-02           0.212           0.000           0.977       1.197e-03          0.1717
 188       2.983e-01      -5.830e-01      -1.823e-02           0.197           0.000           0.980       3.481e-03          0.2448
 189       2.774e-01      -5.830e-01      -1.422e-02           0.173           0.000           0.985       5.463e-03          0.2773
 190       2.466e-01      -5.829e-01      -9.010e-03           0.152           0.000           0.988       6.992e-03          0.3062
 191       2.083e-01      -5.828e-01      -3.424e-03           0.125           0.000           0.992       7.944e-03          0.3034
 192       1.657e-01      -5.828e-01       1.610e-03           0.095           0.000           0.995       8.250e-03          0.2579
 193       1.222e-01      -5.827e-01       5.446e-03           0.066           0.000           0.998       7.897e-03          0.1778
 194       8.133e-02      -5.827e-01       7.855e-03           0.036          -0.000           0.999       6.913e-03          0.0569
 195       4.640e-02      -5.827e-01       8.824e-03          -0.003          -0.000           1.000       5.378e-03         -0.1697
 196       2.026e-02      -5.827e-01       8.514e-03          -0.055          -0.000           0.998       3.417e-03         -0.6747
 197       5.003e-03      -5.827e-01       7.473e-03          -0.178          -0.000           0.984       1.188e-03         -2.7197
Strip 19
 198       3.075e-01      -3.740e-01      -2.016e-02           0.212           0.000           0.977       1.479e-03          0.1718
 199       2.983e-01      -3.740e-01      -1.823e-02           0.197           0.000           0.980       4.303e-03          0.2450
 200       2.774e-01      -3.739e-01      -1.422e-02           0.173           0.000           0.985       6.752e-03          0.2774
 201       2.466e-01      -3.739e-01      -9.011e-03           0.152           0.000           0.988       8.643e-03          0.3063
 202       2.083e-01      -3.739e-01      -3.424e-03           0.125           0.000           0.992       9.819e-03          0.3033
 203       1.657e-01      -3.738e-01       1.610e-03           0.095           0.000           0.995       1.020e-02          0.2576
 204       1.222e-01      -3.738e-01       5.446e-03           0.066           0.000           0.998       9.761e-03          0.1772
 205       8.133e-02      -3.738e-01       7.855e-03           0.036          -0.000           0.999       8.545e-03          0.0559
 206       4.640e-02      -3.737e-01       8.824e-03          -0.003          -0.000           1.000       6.647e-03         -0.1712
 207       2.026e-02      -3.737e-01       8.515e-03          -0.055          -0.000           0.998       4.223e-03         -0.6771
 208       5.003e-03      -3.738e-01       7.473e-03          -0.178          -0.000           0.984       1.468e-03         -2.7254
Strip 20
 209       3.075e-01      -1.649e-01      -2.016e-02           0.212           0.000           0.977       1.197e-03          0.1719
 210       2.983e-01      -1.649e-01      -1.823e-02           0.197           0.000           0.980       3.481e-03          0.2451
 211       2.774e-01      -1.649e-01      -1.422e-02           0.173           0.000           0.985       5.463e-03          0.2774
 212       2.466e-01      -1.649e-01      -9.011e-03           0.152           0.000           0.988       6.992e-03          0.3062
 213       2.083e-01      -1.649e-01      -3.425e-03           0.125           0.000           0.992       7.944e-03          0.3032
 214       1.657e-01      -1.648e-01       1.609e-03           0.095           0.000           0.995       8.250e-03          0.2574
 215       1.222e-01      -1.648e-01       5.446e-03           0.066           0.000           0.998       7.897e-03          0.1769
 216       8.133e-02      -1.648e-01       7.855e-03           0.036          -0.000           0.999       6.913e-03          0.0555
 217       4.640e-02      -1.648e-01       8.824e-03          -0.003          -0.000           1.000       5.378e-03         -0.1717
 218       2.026e-02      -1.648e-01       8.515e-03          -0.055          -0.000           0.998       3.417e-03         -0.6781
 219       5.003e-03      -1.648e-01       7.473e-03          -0.178          -0.000           0.984       1.188e-03         -2.7278
Strip 21
 220       3.075e-01      -3.571e-02      -2.016e-02           0.212           0.000           0.977       4.571e-04          0.1719
 221       2.983e-01      -3.571e-02      -1.823e-02           0.197           0.000           0.980       1.330e-03          0.2451
 222       2.774e-01      -3.571e-02      -1.422e-02           0.173           0.000           0.985       2.087e-03          0.2774
 223       2.466e-01      -3.570e-02      -9.012e-03           0.152           0.000           0.988       2.671e-03          0.3062
 224       2.083e-01      -3.570e-02      -3.425e-03           0.125           0.000           0.992       3.034e-03          0.3032
 225       1.657e-01      -3.570e-02       1.609e-03           0.095           0.000           0.995       3.151e-03          0.2574
 226       1.222e-01      -3.569e-02       5.445e-03           0.066           0.000           0.998       3.016e-03          0.1769
 227       8.133e-02      -3.569e-02       7.855e-03           0.036          -0.000           0.999       2.640e-03          0.0555
 228       4.640e-02      -3.569e-02       8.824e-03          -0.003          -0.000           1.000       2.054e-03         -0.1718
 229       2.026e-02      -3.569e-02       8.515e-03          -0.055          -0.000           0.998       1.305e-03         -0.6783
 230       5.003e-03      -3.569e-02       7.473e-03          -0.178          -0.000           0.984       4.536e-04         -2.7283
Strip 22
 231       3.075e-01       3.571e-02      -2.016e-02           0.212          -0.000           0.977       4.571e-04          0.1719
 232       2.983e-01       3.571e-02      -1.823e-02           0.197          -0.000           0.980       1.330e-03          0.2451
 233       2.774e-01       3.571e-02      -1.422e-02           0.173          -0.000           0.985       2.087e-03          0.2774
 234       2.466e-01       3.570e-02      -9.012e-03           0.152          -0.000           0.988       2.671e-03          0.3062
 235       2.083e-01       3.570e-02      -3.425e-03           0.125          -0.000           0.992       3.034e-03          0.3032
 236       1.657e-01       3.570e-02       1.609e-03           0.095          -0.000           0.995       3.151e-03          0.2574
 237       1.222e-01       3.569e-02       5.445e-03           0.066          -0.000           0.998       3.016e-03          0.1769
 238       8.133e-02       3.569e-02       7.855e-03           0.036           0.000           0.999       2.640e-03          0.0555
 239       4.640e-02       3.569e-02       8.824e-03          -0.003           0.000           1.000       2.054e-03         -0.1718
 240       2.026e-02       3.569e-02       8.515e-03          -0.055           0.000           0.998       1.305e-03         -0.6783
 241       5.003e-03       3.569e-02       7.473e-03          -0.178           0.000           0.984       4.536e-04         -2.7283
Strip 23
 242       3.075e-01       1.649e-01      -2.016e-02           0.212          -0.000           0.977       1.197e-03          0.1719
 243       2.983e-01       1.649e-01      -1.823e-02           0.197          -0.000           0.980       3.481e-03          0.2451
 244       2.774e-01       1.649e-01      -1.422e-02           0.173          -0.000           0.985       5.463e-03          0.2774
 245       2.466e-01       1.649e-01      -9.011e-03           0.152          -0.000           0.988       6.992e-03          0.3062
 246       2.083e-01       1.649e-01      -3.425e-03           0.125          -0.000           0.992       7.944e-03          0.3032
 247       1.657e-01       1.648e-01       1.609e-03           0.095          -0.000           0.995       8.250e-03          0.2574
 248       1.222e-01       1.648e-01       5.446e-03           0.066          -0.000           0.998       7.897e-03          0.1769
 249       8.133e-02       1.648e-01       7.855e-03           0.036           0.000           0.999       6.913e-03          0.0555
 250       4.640e-02       1.648e-01       8.824e-03          -0.003           0.000           1.000       5.378e-03         -0.1717
 251       2.026e-02       1.648e-01       8.515e-03          -0.055           0.000           0.998       3.417e-03         -0.6781
 252       5.003e-03       1.648e-01       7.473e-03          -0.178           0.000           0.984       1.188e-03         -2.7278
Strip 24
 253       3.075e-01       3.740e-01      -2.016e-02           0.212          -0.000           0.977       1.479e-03          0.1718
 254       2.983e-01       3.740e-01      -1.823e-02           0.197          -0.000           0.980       4.303e-03          0.2450
 255       2.774e-01       3.739e-01      -1.422e-02           0.173          -0.000           0.985       6.752e-03          0.2774
 256       2.466e-01       3.739e-01      -9.011e-03           0.152          -0.000           0.988       8.643e-03          0.3063
 257       2.083e-01       3.739e-01      -3.424e-03           0.125          -0.000           0.992       9.819e-03          0.3033
 258       1.657e-01       3.738e-01       1.610e-03           0.095          -0.000           0.995       1.020e-02          0.2576
 259       1.222e-01       3.738e-01       5.446e-03           0.066          -0.000           0.998       9.761e-03          0.1772
 260       8.133e-02       3.738e-01       7.855e-03           0.036           0.000           0.999       8.545e-03          0.0559
 261       4.640e-02       3.737e-01       8.824e-03          -0.003           0.000           1.000       6.647e-03         -0.1712
 262       2.026e-02       3.737e-01       8.515e-03          -0.055           0.000           0.998       4.223e-03         -0.6771
 263       5.003e-03       3.738e-01       7.473e-03          -0.178           0.000           0.984       1.468e-03         -2.7254
Strip 25
 264       3.075e-01       5.831e-01      -2.016e-02           0.212          -0.000           0.977       1.197e-03          0.1717
 265       2.983e-01       5.830e-01      -1.823e-02           0.197          -0.000           0.980       3.481e-03          0.2448
 266       2.774e-01       5.830e-01      -1.422e-02           0.173          -0.000           0.985       5.463e-03          0.2773
 267       2.466e-01       5.829e-01      -9.010e-03           0.152          -0.000           0.988       6.992e-03          0.3062
 268       2.083e-01       5.828e-01      -3.424e-03           0.125          -0.000           0.992       7.944e-03          0.3034
 269       1.657e-01       5.828e-01       1.610e-03           0.095          -0.000           0.995       8.250e-03          0.2579
 270       1.222e-01       5.827e-01       5.446e-03           0.066          -0.000           0.998       7.897e-03          0.1778
 271       8.133e-02       5.827e-01       7.855e-03           0.036           0.000           0.999       6.913e-03          0.0569
 272       4.640e-02       5.827e-01       8.824e-03          -0.003           0.000           1.000       5.378e-03         -0.1697
 273       2.026e-02       5.827e-01       8.514e-03          -0.055           0.000           0.998       3.417e-03         -0.6747
 274       5.003e-03       5.827e-01       7.473e-03          -0.178           0.000           0.984       1.188e-03         -2.7197
Strip 26
 275       3.075e-01       7.123e-01      -2.016e-02           0.212          -0.000           0.977       4.571e-04          0.1709
 276       2.983e-01       7.122e-01      -1.823e-02           0.197          -0.000           0.980       1.330e-03          0.2436
 277       2.774e-01       7.122e-01      -1.422e-02           0.173          -0.000           0.985       2.087e-03          0.2760
 278       2.466e-01       7.121e-01      -9.009e-03           0.152          -0.000           0.988       2.671e-03          0.3052
 279       2.083e-01       7.120e-01      -3.423e-03           0.125          -0.000           0.992       3.034e-03          0.3030
 280       1.657e-01       7.119e-01       1.610e-03           0.095          -0.000           0.995       3.151e-03          0.2582
 281       1.222e-01       7.119e-01       5.446e-03           0.066          -0.000           0.998       3.016e-03          0.1788
 282       8.133e-02       7.118e-01       7.855e-03           0.036           0.000           0.999       2.640e-03          0.0585
 283       4.640e-02       7.118e-01       8.824e-03          -0.003           0.000           1.000       2.054e-03         -0.1673
 284       2.026e-02       7.118e-01       8.514e-03          -0.055           0.000           0.998       1.305e-03         -0.6707
 285       5.003e-03       7.118e-01       7.472e-03          -0.178           0.000           0.984       4.536e-04         -2.7100
Strip 27
 286       3.068e-01       7.588e-01      -1.974e-02           0.212          -0.024           0.977       1.376e-04          0.1696
 287       2.976e-01       7.587e-01      -1.781e-02           0.197          -0.025           0.980       4.002e-04          0.2421
 288       2.767e-01       7.587e-01      -1.381e-02           0.173          -0.027           0.985       6.280e-04          0.2748
 289       2.460e-01       7.586e-01      -8.612e-03           0.152          -0.028           0.988       8.040e-04          0.3043
 290       2.078e-01       7.585e-01      -3.039e-03           0.125          -0.030           0.992       9.135e-04          0.3024
 291       1.653e-01       7.584e-01       1.982e-03           0.095          -0.031           0.995       9.489e-04          0.2579
 292       1.219e-01       7.583e-01       5.809e-03           0.066          -0.032           0.997       9.083e-04          0.1788
 293       8.113e-02       7.583e-01       8.211e-03           0.036          -0.032           0.999       7.951e-04          0.0591
 294       4.629e-02       7.583e-01       9.178e-03          -0.003          -0.033           0.999       6.186e-04         -0.1659
 295       2.021e-02       7.583e-01       8.869e-03          -0.055          -0.033           0.998       3.930e-04         -0.6680
 296       4.991e-03       7.583e-01       7.830e-03          -0.178          -0.033           0.984       1.366e-04         -2.7026
Strip 28
 297       3.039e-01       8.014e-01      -1.806e-02           0.212          -0.024           0.977       4.035e-04          0.1707
 298       2.947e-01       8.014e-01      -1.615e-02           0.197          -0.025           0.980       1.174e-03          0.2434
 299       2.741e-01       8.013e-01      -1.218e-02           0.173          -0.027           0.985       1.842e-03          0.2757
 300       2.436e-01       8.012e-01      -7.038e-03           0.152          -0.028           0.988       2.358e-03          0.3048
 301       2.058e-01       8.011e-01      -1.518e-03           0.125          -0.030           0.992       2.680e-03          0.3026
 302       1.637e-01       8.010e-01       3.455e-03           0.095          -0.031           0.995       2.783e-03          0.2579
 303       1.207e-01       8.010e-01       7.245e-03           0.066          -0.032           0.997       2.664e-03          0.1788
 304       8.036e-02       8.009e-01       9.625e-03           0.036          -0.032           0.999       2.332e-03          0.0589
 305       4.585e-02       8.009e-01       1.058e-02          -0.003          -0.033           0.999       1.814e-03         -0.1663
 306       2.002e-02       8.009e-01       1.028e-02          -0.055          -0.033           0.998       1.153e-03         -0.6690
 307       4.944e-03       8.009e-01       9.247e-03          -0.178          -0.033           0.984       4.007e-04         -2.7063
Strip 29
 308       2.981e-01       8.851e-01      -1.476e-02           0.212          -0.024           0.977       6.429e-04          0.1710
 309       2.892e-01       8.851e-01      -1.289e-02           0.197          -0.025           0.980       1.870e-03          0.2440
 310       2.689e-01       8.850e-01      -8.998e-03           0.173          -0.027           0.985       2.935e-03          0.2764
 311       2.390e-01       8.849e-01      -3.950e-03           0.152          -0.028           0.988       3.757e-03          0.3055
 312       2.019e-01       8.848e-01       1.465e-03           0.125          -0.030           0.992       4.269e-03          0.3031
 313       1.606e-01       8.847e-01       6.344e-03           0.095          -0.031           0.995       4.435e-03          0.2581
 314       1.185e-01       8.846e-01       1.006e-02           0.066          -0.032           0.997       4.245e-03          0.1787
 315       7.884e-02       8.846e-01       1.240e-02           0.036          -0.032           0.999       3.716e-03          0.0585
 316       4.499e-02       8.846e-01       1.334e-02          -0.003          -0.033           0.999       2.891e-03         -0.1671
 317       1.964e-02       8.846e-01       1.304e-02          -0.055          -0.033           0.998       1.837e-03         -0.6702
 318       4.850e-03       8.846e-01       1.203e-02          -0.178          -0.033           0.984       6.384e-04         -2.7090
Strip 30
 319       2.898e-01       1.007e+00      -9.975e-03           0.212          -0.024           0.977       8.410e-04          0.1712
 320       2.811e-01       1.007e+00      -8.153e-03           0.197          -0.025           0.980       2.447e-03          0.2442
 321       2.614e-01       1.006e+00      -4.374e-03           0.173          -0.027           0.985       3.840e-03          0.2768
 322       2.323e-01       1.006e+00       5.324e-04           0.152          -0.028           0.988       4.915e-03          0.3059
 323       1.963e-01       1.006e+00       5.796e-03           0.125          -0.030           0.992       5.585e-03          0.3034
 324       1.561e-01       1.006e+00       1.054e-02           0.095          -0.031           0.995       5.801e-03          0.2584
 325       1.151e-01       1.006e+00       1.415e-02           0.066          -0.032           0.997       5.553e-03          0.1788
 326       7.663e-02       1.006e+00       1.642e-02           0.036          -0.032           0.999       4.861e-03          0.0586
 327       4.373e-02       1.006e+00       1.734e-02          -0.003          -0.033           0.999       3.782e-03         -0.1671
 328       1.909e-02       1.006e+00       1.704e-02          -0.055          -0.033           0.998       2.403e-03         -0.6703
 329       4.715e-03       1.006e+00       1.606e-02          -0.178          -0.033           0.984       8.352e-04         -2.7090
Strip 31
 330       2.792e-01       1.161e+00      -3.885e-03           0.212          -0.024           0.977       9.873e-04          0.1712
 331       2.708e-01       1.161e+00      -2.130e-03           0.197          -0.025           0.980       2.872e-03          0.2444
 332       2.518e-01       1.161e+00       1.511e-03           0.173          -0.027           0.985       4.507e-03          0.2770
 333       2.238e-01       1.161e+00       6.238e-03           0.152          -0.028           0.988       5.770e-03          0.3062
 334       1.891e-01       1.161e+00       1.131e-02           0.125          -0.030           0.992       6.556e-03          0.3038
 335       1.504e-01       1.161e+00       1.588e-02           0.095          -0.031           0.995       6.810e-03          0.2588
 336       1.109e-01       1.161e+00       1.936e-02           0.066          -0.032           0.997       6.519e-03          0.1792
 337       7.383e-02       1.161e+00       2.155e-02           0.036          -0.032           0.999       5.707e-03          0.0590
 338       4.213e-02       1.161e+00       2.243e-02          -0.003          -0.033           0.999       4.439e-03         -0.1665
 339       1.839e-02       1.161e+00       2.215e-02          -0.055          -0.033           0.998       2.821e-03         -0.6692
 340       4.542e-03       1.161e+00       2.120e-02          -0.178          -0.033           0.984       9.804e-04         -2.7064
Strip 32
 341       2.667e-01       1.343e+00       3.277e-03           0.212          -0.024           0.977       1.076e-03          0.1713
 342       2.587e-01       1.343e+00       4.953e-03           0.197          -0.025           0.980       3.131e-03          0.2445
 343       2.406e-01       1.343e+00       8.431e-03           0.173          -0.027           0.985       4.913e-03          0.2772
 344       2.138e-01       1.343e+00       1.295e-02           0.152          -0.028           0.988       6.289e-03          0.3066
 345       1.807e-01       1.343e+00       1.779e-02           0.125          -0.030           0.992       7.146e-03          0.3042
 346       1.437e-01       1.343e+00       2.216e-02           0.095          -0.031           0.995       7.422e-03          0.2593
 347       1.060e-01       1.343e+00       2.548e-02           0.066          -0.032           0.997       7.105e-03          0.1799
 348       7.053e-02       1.342e+00       2.757e-02           0.036          -0.032           0.999       6.220e-03          0.0598
 349       4.025e-02       1.342e+00       2.841e-02          -0.003          -0.033           0.999       4.839e-03         -0.1654
 350       1.757e-02       1.342e+00       2.814e-02          -0.055          -0.033           0.998       3.074e-03         -0.6674
 351       4.339e-03       1.343e+00       2.724e-02          -0.178          -0.033           0.984       1.069e-03         -2.7021
Strip 33
 352       2.529e-01       1.545e+00       1.123e-02           0.212          -0.024           0.977       1.107e-03          0.1714
 353       2.452e-01       1.545e+00       1.282e-02           0.197          -0.025           0.980       3.221e-03          0.2446
 354       2.281e-01       1.545e+00       1.612e-02           0.173          -0.027           0.985       5.054e-03          0.2775
 355       2.027e-01       1.545e+00       2.040e-02           0.152          -0.028           0.988       6.469e-03          0.3069
 356       1.713e-01       1.545e+00       2.499e-02           0.125          -0.030           0.992       7.351e-03          0.3047
 357       1.362e-01       1.545e+00       2.913e-02           0.095          -0.031           0.995       7.635e-03          0.2599
 358       1.005e-01       1.545e+00       3.228e-02           0.066          -0.032           0.997       7.309e-03          0.1806
 359       6.687e-02       1.545e+00       3.427e-02           0.036          -0.032           0.999       6.398e-03          0.0607
 360       3.816e-02       1.544e+00       3.506e-02          -0.003          -0.033           0.999       4.978e-03         -0.1641
 361       1.666e-02       1.544e+00       3.481e-02          -0.055          -0.033           0.998       3.162e-03         -0.6653
 362       4.114e-03       1.545e+00       3.395e-02          -0.178          -0.033           0.984       1.099e-03         -2.6970
Strip 34
 363       2.381e-01       1.759e+00       1.968e-02           0.212          -0.024           0.977       1.084e-03          0.1714
 364       2.310e-01       1.759e+00       2.118e-02           0.197          -0.025           0.980       3.155e-03          0.2448
 365       2.148e-01       1.759e+00       2.428e-02           0.173          -0.027           0.985       4.950e-03          0.2777
 366       1.909e-01       1.759e+00       2.831e-02           0.152          -0.028           0.988       6.337e-03          0.3073
 367       1.613e-01       1.759e+00       3.264e-02           0.125          -0.030           0.992       7.200e-03          0.3051
 368       1.283e-01       1.759e+00       3.654e-02           0.095          -0.031           0.995       7.479e-03          0.2605
 369       9.462e-02       1.759e+00       3.951e-02           0.066          -0.032           0.997       7.159e-03          0.1813
 370       6.298e-02       1.759e+00       4.137e-02           0.036          -0.032           0.999       6.267e-03          0.0616
 371       3.594e-02       1.759e+00       4.212e-02          -0.003          -0.033           0.999       4.875e-03         -0.1628
 372       1.569e-02       1.759e+00       4.188e-02          -0.055          -0.033           0.998       3.097e-03         -0.6632
 373       3.875e-03       1.759e+00       4.108e-02          -0.178          -0.033           0.984       1.077e-03         -2.6921
Strip 35
 374       2.231e-01       1.978e+00       2.829e-02           0.212          -0.024           0.977       1.016e-03          0.1715
 375       2.164e-01       1.978e+00       2.970e-02           0.197          -0.025           0.980       2.956e-03          0.2449
 376       2.013e-01       1.978e+00       3.261e-02           0.173          -0.027           0.985       4.638e-03          0.2779
 377       1.789e-01       1.978e+00       3.638e-02           0.152          -0.028           0.988       5.938e-03          0.3075
 378       1.511e-01       1.978e+00       4.044e-02           0.125          -0.030           0.992       6.746e-03          0.3055
 379       1.202e-01       1.978e+00       4.409e-02           0.095          -0.031           0.995       7.008e-03          0.2609
 380       8.866e-02       1.978e+00       4.687e-02           0.066          -0.032           0.997       6.708e-03          0.1818
 381       5.901e-02       1.978e+00       4.862e-02           0.036          -0.032           0.999       5.872e-03          0.0623
 382       3.367e-02       1.978e+00       4.932e-02          -0.003          -0.033           0.999       4.568e-03         -0.1619
 383       1.470e-02       1.978e+00       4.910e-02          -0.055          -0.033           0.998       2.902e-03         -0.6616
 384       3.630e-03       1.978e+00       4.834e-02          -0.178          -0.033           0.984       1.009e-03         -2.6883
Strip 36
 385       2.084e-01       2.193e+00       3.674e-02           0.212          -0.024           0.977       9.126e-04          0.1715
 386       2.022e-01       2.193e+00       3.805e-02           0.197          -0.025           0.980       2.655e-03          0.2450
 387       1.880e-01       2.192e+00       4.077e-02           0.173          -0.027           0.985       4.166e-03          0.2780
 388       1.671e-01       2.192e+00       4.430e-02           0.152          -0.028           0.988       5.333e-03          0.3076
 389       1.412e-01       2.192e+00       4.808e-02           0.125          -0.030           0.992       6.060e-03          0.3056
 390       1.123e-01       2.192e+00       5.149e-02           0.095          -0.031           0.995       6.294e-03          0.2611
 391       8.282e-02       2.192e+00       5.409e-02           0.066          -0.032           0.997       6.025e-03          0.1821
 392       5.512e-02       2.192e+00       5.572e-02           0.036          -0.032           0.999       5.274e-03          0.0627
 393       3.145e-02       2.192e+00       5.638e-02          -0.003          -0.033           0.999       4.103e-03         -0.1614
 394       1.373e-02       2.192e+00       5.617e-02          -0.055          -0.033           0.998       2.607e-03         -0.6607
 395       3.391e-03       2.192e+00       5.547e-02          -0.178          -0.033           0.984       9.061e-04         -2.6863
Strip 37
 396       1.946e-01       2.395e+00       4.470e-02           0.212          -0.024           0.977       7.851e-04          0.1715
 397       1.887e-01       2.395e+00       4.592e-02           0.197          -0.025           0.980       2.284e-03          0.2449
 398       1.755e-01       2.394e+00       4.846e-02           0.173          -0.027           0.985       3.584e-03          0.2779
 399       1.560e-01       2.394e+00       5.175e-02           0.152          -0.028           0.988       4.588e-03          0.3075
 400       1.318e-01       2.394e+00       5.528e-02           0.125          -0.030           0.992       5.213e-03          0.3055
 401       1.048e-01       2.394e+00       5.847e-02           0.095          -0.031           0.995       5.415e-03          0.2609
 402       7.731e-02       2.394e+00       6.089e-02           0.066          -0.032           0.997       5.183e-03          0.1819
 403       5.146e-02       2.394e+00       6.242e-02           0.036          -0.032           0.999       4.538e-03          0.0625
 404       2.936e-02       2.394e+00       6.303e-02          -0.003          -0.033           0.999       3.530e-03         -0.1616
 405       1.282e-02       2.394e+00       6.284e-02          -0.055          -0.033           0.998       2.243e-03         -0.6611
 406       3.166e-03       2.394e+00       6.218e-02          -0.178          -0.033           0.984       7.796e-04         -2.6870
Strip 38
 407       1.821e-01       2.576e+00       5.186e-02           0.212          -0.024           0.977       6.441e-04          0.1713
 408       1.766e-01       2.576e+00       5.300e-02           0.197          -0.025           0.980       1.874e-03          0.2447
 409       1.643e-01       2.576e+00       5.538e-02           0.173          -0.027           0.985       2.940e-03          0.2776
 410       1.460e-01       2.576e+00       5.846e-02           0.152          -0.028           0.988       3.764e-03          0.3071
 411       1.233e-01       2.576e+00       6.177e-02           0.125          -0.030           0.992       4.277e-03          0.3049
 412       9.812e-02       2.576e+00       6.475e-02           0.095          -0.031           0.995       4.442e-03          0.2603
 413       7.236e-02       2.576e+00       6.702e-02           0.066          -0.032           0.997       4.252e-03          0.1811
 414       4.816e-02       2.576e+00       6.844e-02           0.036          -0.032           0.999       3.722e-03          0.0615
 415       2.748e-02       2.576e+00       6.902e-02          -0.003          -0.033           0.999       2.896e-03         -0.1629
 416       1.200e-02       2.576e+00       6.883e-02          -0.055          -0.033           0.998       1.840e-03         -0.6630
 417       2.963e-03       2.576e+00       6.822e-02          -0.178          -0.033           0.984       6.395e-04         -2.6914
Strip 39
 418       1.715e-01       2.731e+00       5.795e-02           0.212          -0.024           0.977       4.978e-04          0.1710
 419       1.663e-01       2.731e+00       5.903e-02           0.197          -0.025           0.980       1.448e-03          0.2440
 420       1.547e-01       2.731e+00       6.126e-02           0.173          -0.027           0.985       2.273e-03          0.2766
 421       1.375e-01       2.731e+00       6.416e-02           0.152          -0.028           0.988       2.909e-03          0.3059
 422       1.162e-01       2.731e+00       6.728e-02           0.125          -0.030           0.992       3.305e-03          0.3036
 423       9.240e-02       2.731e+00       7.008e-02           0.095          -0.031           0.995       3.433e-03          0.2587
 424       6.814e-02       2.731e+00       7.222e-02           0.066          -0.032           0.997       3.286e-03          0.1794
 425       4.535e-02       2.730e+00       7.357e-02           0.036          -0.032           0.999       2.877e-03          0.0597
 426       2.588e-02       2.730e+00       7.411e-02          -0.003          -0.033           0.999       2.238e-03         -0.1651
 427       1.130e-02       2.730e+00       7.393e-02          -0.055          -0.033           0.998       1.422e-03         -0.6664
 428       2.790e-03       2.730e+00       7.335e-02          -0.178          -0.033           0.984       4.943e-04         -2.6989
Strip 40
 429       1.632e-01       2.852e+00       6.273e-02           0.212          -0.024           0.977       3.519e-04          0.1695
 430       1.583e-01       2.852e+00       6.376e-02           0.197          -0.025           0.980       1.024e-03          0.2414
 431       1.472e-01       2.852e+00       6.589e-02           0.173          -0.027           0.985       1.607e-03          0.2730
 432       1.308e-01       2.852e+00       6.865e-02           0.152          -0.028           0.988       2.057e-03          0.3016
 433       1.105e-01       2.852e+00       7.161e-02           0.125          -0.030           0.992       2.337e-03          0.2992
 434       8.791e-02       2.852e+00       7.428e-02           0.095          -0.031           0.995       2.427e-03          0.2549
 435       6.483e-02       2.852e+00       7.631e-02           0.066          -0.032           0.997       2.323e-03          0.1765
 436       4.315e-02       2.852e+00       7.759e-02           0.036          -0.032           0.999       2.034e-03          0.0577
 437       2.462e-02       2.852e+00       7.811e-02          -0.003          -0.033           0.999       1.582e-03         -0.1663
 438       1.075e-02       2.852e+00       7.794e-02          -0.055          -0.033           0.998       1.005e-03         -0.6670
 439       2.655e-03       2.852e+00       7.739e-02          -0.178          -0.033           0.984       3.494e-04         -2.6990
Strip 41
 440       1.574e-01       2.936e+00       6.603e-02           0.212          -0.024           0.977       2.091e-04          0.1620
 441       1.527e-01       2.936e+00       6.702e-02           0.197          -0.025           0.980       6.084e-04          0.2283
 442       1.420e-01       2.936e+00       6.907e-02           0.173          -0.027           0.985       9.546e-04          0.2541
 443       1.262e-01       2.936e+00       7.173e-02           0.152          -0.028           0.988       1.222e-03          0.2788
 444       1.066e-01       2.936e+00       7.459e-02           0.125          -0.030           0.992       1.388e-03          0.2767
 445       8.482e-02       2.936e+00       7.717e-02           0.095          -0.031           0.995       1.442e-03          0.2380
 446       6.255e-02       2.936e+00       7.913e-02           0.066          -0.032           0.997       1.380e-03          0.1696
 447       4.163e-02       2.936e+00       8.036e-02           0.036          -0.032           0.999       1.208e-03          0.0625
 448       2.376e-02       2.936e+00       8.086e-02          -0.003          -0.033           0.999       9.401e-04         -0.1502
 449       1.037e-02       2.936e+00       8.070e-02          -0.055          -0.033           0.998       5.973e-04         -0.6362
 450       2.561e-03       2.936e+00       8.017e-02          -0.178          -0.033           0.984       2.076e-04         -2.6264
Strip 42
 451       1.545e-01       2.979e+00       6.771e-02           0.212          -0.024           0.977       6.929e-05          0.1355
 452       1.499e-01       2.979e+00       6.868e-02           0.197          -0.025           0.980       2.016e-04          0.1789
 453       1.394e-01       2.979e+00       7.069e-02           0.173          -0.027           0.985       3.163e-04          0.1825
 454       1.239e-01       2.979e+00       7.331e-02           0.152          -0.028           0.988       4.049e-04          0.1939
 455       1.046e-01       2.978e+00       7.611e-02           0.125          -0.030           0.992       4.601e-04          0.1912
 456       8.324e-02       2.978e+00       7.864e-02           0.095          -0.031           0.995       4.779e-04          0.1675
 457       6.139e-02       2.978e+00       8.057e-02           0.066          -0.032           0.997       4.574e-04          0.1311
 458       4.086e-02       2.978e+00       8.178e-02           0.036          -0.032           0.999       4.004e-04          0.0770
 459       2.331e-02       2.978e+00       8.226e-02          -0.003          -0.033           0.999       3.115e-04         -0.0619
 460       1.018e-02       2.978e+00       8.211e-02          -0.055          -0.033           0.998       1.979e-04         -0.4619
 461       2.514e-03       2.978e+00       8.159e-02          -0.178          -0.033           0.984       6.880e-05         -2.2460




Horizontal StabilizerCp Coefficients
Strip 1
   0       1.117e+00      -7.457e-01       4.013e-01          -0.015           0.000           1.000       9.633e-06         -0.0139
   1       1.113e+00      -7.457e-01       4.013e-01          -0.015           0.000           1.000       2.812e-05         -0.0227
   2       1.104e+00      -7.457e-01       4.011e-01          -0.015           0.000           1.000       4.433e-05         -0.0329
   3       1.092e+00      -7.457e-01       4.009e-01          -0.015           0.000           1.000       5.694e-05         -0.0449
   4       1.076e+00      -7.457e-01       4.007e-01          -0.015           0.000           1.000       6.495e-05         -0.0604
   5       1.059e+00      -7.457e-01       4.004e-01          -0.015           0.000           1.000       6.769e-05         -0.0818
   6       1.042e+00      -7.457e-01       4.002e-01          -0.015           0.000           1.000       6.495e-05         -0.1144
   7       1.025e+00      -7.457e-01       3.999e-01          -0.015           0.000           1.000       5.694e-05         -0.1699
   8       1.011e+00      -7.457e-01       3.997e-01          -0.015           0.000           1.000       4.433e-05         -0.2810
   9       1.000e+00      -7.457e-01       3.995e-01          -0.015           0.000           1.000       2.812e-05         -0.5809
  10       9.942e-01      -7.457e-01       3.994e-01          -0.015           0.000           1.000       9.633e-06         -1.8152
Strip 2
  11       1.117e+00      -7.382e-01       4.013e-01          -0.015           0.000           1.000       2.870e-05         -0.0219
  12       1.113e+00      -7.382e-01       4.013e-01          -0.015           0.000           1.000       8.378e-05         -0.0382
  13       1.104e+00      -7.382e-01       4.011e-01          -0.015           0.000           1.000       1.321e-04         -0.0568
  14       1.092e+00      -7.382e-01       4.009e-01          -0.015           0.000           1.000       1.697e-04         -0.0784
  15       1.076e+00      -7.382e-01       4.007e-01          -0.015           0.000           1.000       1.935e-04         -0.1059
  16       1.059e+00      -7.382e-01       4.004e-01          -0.015           0.000           1.000       2.017e-04         -0.1443
  17       1.042e+00      -7.382e-01       4.002e-01          -0.015           0.000           1.000       1.935e-04         -0.2031
  18       1.025e+00      -7.382e-01       3.999e-01          -0.015           0.000           1.000       1.697e-04         -0.3046
  19       1.011e+00      -7.382e-01       3.997e-01          -0.015           0.000           1.000       1.321e-04         -0.5105
[...]
  93       1.063e+00      -4.356e-16       2.696e-01           0.000           1.000           0.000       6.612e-04          0.0000
  94       1.039e+00      -4.356e-16       2.696e-01           0.000           1.000           0.000       6.344e-04          0.0000
  95       1.016e+00      -4.356e-16       2.696e-01           0.000           1.000           0.000       5.562e-04          0.0000
  96       9.959e-01      -4.356e-16       2.696e-01           0.000           1.000           0.000       4.330e-04          0.0000
  97       9.812e-01      -4.356e-16       2.696e-01           0.000           1.000           0.000       2.747e-04          0.0000
  98       9.726e-01      -4.356e-16       2.696e-01           0.000           1.000           0.000       9.410e-05          0.0000
Strip 10
  99       1.148e+00      -3.915e-16       2.423e-01           0.000           1.000           0.000       1.039e-04          0.0000
 100       1.143e+00      -3.915e-16       2.423e-01           0.000           1.000           0.000       3.033e-04          0.0000
 101       1.130e+00      -3.915e-16       2.423e-01           0.000           1.000           0.000       4.782e-04          0.0000
 102       1.112e+00      -3.915e-16       2.423e-01           0.000           1.000           0.000       6.143e-04          0.0000
 103       1.089e+00      -3.915e-16       2.423e-01           0.000           1.000           0.000       7.006e-04          0.0000
 104       1.064e+00      -3.915e-16       2.423e-01           0.000           1.000           0.000       7.302e-04          0.0000
 105       1.038e+00      -3.915e-16       2.423e-01           0.000           1.000           0.000       7.006e-04          0.0000
 106       1.014e+00      -3.915e-16       2.423e-01           0.000           1.000           0.000       6.143e-04          0.0000
 107       9.927e-01      -3.915e-16       2.423e-01           0.000           1.000           0.000       4.782e-04          0.0000
 108       9.771e-01      -3.915e-16       2.423e-01           0.000           1.000           0.000       3.033e-04          0.0000
 109       9.680e-01      -3.915e-16       2.423e-01           0.000           1.000           0.000       1.039e-04          0.0000
Strip 11
 110       1.154e+00      -3.460e-16       2.142e-01           0.000           1.000           0.000       1.122e-04          0.0000
 111       1.148e+00      -3.460e-16       2.142e-01           0.000           1.000           0.000       3.274e-04          0.0000
 112       1.135e+00      -3.460e-16       2.142e-01           0.000           1.000           0.000       5.161e-04          0.0000
 113       1.116e+00      -3.460e-16       2.142e-01           0.000           1.000           0.000       6.630e-04          0.0000
 114       1.091e+00      -3.460e-16       2.142e-01           0.000           1.000           0.000       7.562e-04          0.0000
 115       1.065e+00      -3.460e-16       2.142e-01           0.000           1.000           0.000       7.881e-04          0.0000
 116       1.037e+00      -3.460e-16       2.142e-01           0.000           1.000           0.000       7.562e-04          0.0000
 117       1.011e+00      -3.460e-16       2.142e-01           0.000           1.000           0.000       6.630e-04          0.0000
 118       9.894e-01      -3.460e-16       2.142e-01           0.000           1.000           0.000       5.161e-04          0.0000
 119       9.730e-01      -3.460e-16       2.142e-01           0.000           1.000           0.000       3.274e-04          0.0000
 120       9.633e-01      -3.460e-16       2.142e-01           0.000           1.000           0.000       1.122e-04          0.0000
Strip 12
 121       1.160e+00      -3.000e-16       1.857e-01           0.000           1.000           0.000       1.183e-04          0.0000
 122       1.154e+00      -3.000e-16       1.857e-01           0.000           1.000           0.000       3.453e-04          0.0000
 123       1.140e+00      -3.000e-16       1.857e-01           0.000           1.000           0.000       5.444e-04          0.0000
 124       1.119e+00      -3.000e-16       1.857e-01           0.000           1.000           0.000       6.993e-04          0.0000
 125       1.094e+00      -3.000e-16       1.857e-01           0.000           1.000           0.000       7.976e-04          0.0000
 126       1.065e+00      -3.000e-16       1.857e-01           0.000           1.000           0.000       8.313e-04          0.0000
 127       1.037e+00      -3.000e-16       1.857e-01           0.000           1.000           0.000       7.976e-04          0.0000
 128       1.009e+00      -3.000e-16       1.857e-01           0.000           1.000           0.000       6.993e-04          0.0000
 129       9.861e-01      -3.000e-16       1.857e-01           0.000           1.000           0.000       5.444e-04          0.0000
 130       9.688e-01      -3.000e-16       1.857e-01           0.000           1.000           0.000       3.453e-04          0.0000
 131       9.586e-01      -3.000e-16       1.857e-01           0.000           1.000           0.000       1.183e-04          0.0000
Strip 13
 132       1.165e+00      -2.545e-16       1.576e-01           0.000           1.000           0.000       1.219e-04          0.0000
 133       1.159e+00      -2.545e-16       1.576e-01           0.000           1.000           0.000       3.557e-04          0.0000
 134       1.144e+00      -2.545e-16       1.576e-01           0.000           1.000           0.000       5.607e-04          0.0000
 135       1.123e+00      -2.545e-16       1.576e-01           0.000           1.000           0.000       7.203e-04          0.0000
 136       1.096e+00      -2.545e-16       1.576e-01           0.000           1.000           0.000       8.216e-04          0.0000
 137       1.066e+00      -2.545e-16       1.576e-01           0.000           1.000           0.000       8.562e-04          0.0000
 138       1.036e+00      -2.545e-16       1.576e-01           0.000           1.000           0.000       8.216e-04          0.0000
 139       1.007e+00      -2.545e-16       1.576e-01           0.000           1.000           0.000       7.203e-04          0.0000
 140       9.829e-01      -2.545e-16       1.576e-01           0.000           1.000           0.000       5.607e-04          0.0000
 141       9.646e-01      -2.545e-16       1.576e-01           0.000           1.000           0.000       3.557e-04          0.0000
 142       9.539e-01      -2.545e-16       1.576e-01           0.000           1.000           0.000       1.219e-04          0.0000
Strip 14
 143       1.171e+00      -2.104e-16       1.302e-01           0.000           1.000           0.000       1.224e-04          0.0000
 144       1.164e+00      -2.104e-16       1.302e-01           0.000           1.000           0.000       3.572e-04          0.0000
 145       1.149e+00      -2.104e-16       1.302e-01           0.000           1.000           0.000       5.632e-04          0.0000
 146       1.126e+00      -2.104e-16       1.302e-01           0.000           1.000           0.000       7.234e-04          0.0000
 147       1.098e+00      -2.104e-16       1.302e-01           0.000           1.000           0.000       8.251e-04          0.0000
 148       1.067e+00      -2.104e-16       1.302e-01           0.000           1.000           0.000       8.600e-04          0.0000
 149       1.035e+00      -2.104e-16       1.302e-01           0.000           1.000           0.000       8.251e-04          0.0000
 150       1.005e+00      -2.104e-16       1.302e-01           0.000           1.000           0.000       7.234e-04          0.0000
 151       9.797e-01      -2.104e-16       1.302e-01           0.000           1.000           0.000       5.632e-04          0.0000
 152       9.606e-01      -2.104e-16       1.302e-01           0.000           1.000           0.000       3.572e-04          0.0000
 153       9.494e-01      -2.104e-16       1.302e-01           0.000           1.000           0.000       1.224e-04          0.0000
Strip 15
 154       1.176e+00      -1.686e-16       1.044e-01           0.000           1.000           0.000       1.196e-04          0.0000
 155       1.169e+00      -1.686e-16       1.044e-01           0.000           1.000           0.000       3.490e-04          0.0000
 156       1.153e+00      -1.686e-16       1.044e-01           0.000           1.000           0.000       5.502e-04          0.0000
 157       1.130e+00      -1.686e-16       1.044e-01           0.000           1.000           0.000       7.068e-04          0.0000
 158       1.100e+00      -1.686e-16       1.044e-01           0.000           1.000           0.000       8.061e-04          0.0000
 159       1.068e+00      -1.686e-16       1.044e-01           0.000           1.000           0.000       8.401e-04          0.0000
 160       1.035e+00      -1.686e-16       1.044e-01           0.000           1.000           0.000       8.061e-04          0.0000
 161       1.003e+00      -1.686e-16       1.044e-01           0.000           1.000           0.000       7.068e-04          0.0000
 162       9.767e-01      -1.686e-16       1.044e-01           0.000           1.000           0.000       5.502e-04          0.0000
 163       9.568e-01      -1.686e-16       1.044e-01           0.000           1.000           0.000       3.490e-04          0.0000
 164       9.451e-01      -1.686e-16       1.044e-01           0.000           1.000           0.000       1.196e-04          0.0000
Strip 16
 165       1.181e+00      -1.299e-16       8.043e-02           0.000           1.000           0.000       1.132e-04          0.0000
 166       1.174e+00      -1.299e-16       8.043e-02           0.000           1.000           0.000       3.304e-04          0.0000
 167       1.157e+00      -1.299e-16       8.043e-02           0.000           1.000           0.000       5.209e-04          0.0000
 168       1.133e+00      -1.299e-16       8.043e-02           0.000           1.000           0.000       6.692e-04          0.0000
 169       1.102e+00      -1.299e-16       8.043e-02           0.000           1.000           0.000       7.632e-04          0.0000
 170       1.068e+00      -1.299e-16       8.043e-02           0.000           1.000           0.000       7.955e-04          0.0000
 171       1.034e+00      -1.299e-16       8.043e-02           0.000           1.000           0.000       7.632e-04          0.0000
 172       1.002e+00      -1.299e-16       8.043e-02           0.000           1.000           0.000       6.692e-04          0.0000
 173       9.739e-01      -1.299e-16       8.043e-02           0.000           1.000           0.000       5.209e-04          0.0000
 174       9.532e-01      -1.299e-16       8.043e-02           0.000           1.000           0.000       3.304e-04          0.0000
 175       9.411e-01      -1.299e-16       8.043e-02           0.000           1.000           0.000       1.132e-04          0.0000
Strip 17
 176       1.185e+00      -9.519e-17       5.892e-02           0.000           1.000           0.000       1.033e-04          0.0000
 177       1.178e+00      -9.519e-17       5.892e-02           0.000           1.000           0.000       3.015e-04          0.0000
 178       1.161e+00      -9.519e-17       5.892e-02           0.000           1.000           0.000       4.753e-04          0.0000
 179       1.135e+00      -9.519e-17       5.892e-02           0.000           1.000           0.000       6.105e-04          0.0000
 180       1.104e+00      -9.519e-17       5.892e-02           0.000           1.000           0.000       6.964e-04          0.0000
 181       1.069e+00      -9.519e-17       5.892e-02           0.000           1.000           0.000       7.258e-04          0.0000
 182       1.033e+00      -9.519e-17       5.892e-02           0.000           1.000           0.000       6.964e-04          0.0000
 183       1.000e+00      -9.519e-17       5.892e-02           0.000           1.000           0.000       6.105e-04          0.0000
 184       9.714e-01      -9.519e-17       5.892e-02           0.000           1.000           0.000       4.753e-04          0.0000
 185       9.500e-01      -9.519e-17       5.892e-02           0.000           1.000           0.000       3.015e-04          0.0000
 186       9.376e-01      -9.519e-17       5.892e-02           0.000           1.000           0.000       1.033e-04          0.0000
Strip 18
 187       1.189e+00      -6.509e-17       4.029e-02           0.000           1.000           0.000       8.995e-05         -0.0000
 188       1.181e+00      -6.509e-17       4.029e-02           0.000           1.000           0.000       2.626e-04          0.0000
 189       1.164e+00      -6.509e-17       4.029e-02           0.000           1.000           0.000       4.139e-04          0.0000
 190       1.138e+00      -6.509e-17       4.029e-02           0.000           1.000           0.000       5.317e-04          0.0000
 191       1.105e+00      -6.509e-17       4.029e-02           0.000           1.000           0.000       6.065e-04          0.0000
 192       1.070e+00      -6.509e-17       4.029e-02           0.000           1.000           0.000       6.321e-04          0.0000
 193       1.033e+00      -6.509e-17       4.029e-02           0.000           1.000           0.000       6.065e-04          0.0000
 194       9.987e-01      -6.509e-17       4.029e-02           0.000           1.000           0.000       5.317e-04          0.0000
 195       9.693e-01      -6.509e-17       4.029e-02           0.000           1.000           0.000       4.139e-04          0.0000
 196       9.473e-01      -6.509e-17       4.029e-02           0.000           1.000           0.000       2.626e-04          0.0000
 197       9.345e-01      -6.509e-17       4.029e-02           0.000           1.000           0.000       8.995e-05          0.0000
Strip 19
 198       1.192e+00      -4.023e-17       2.490e-02           0.000           1.000           0.000       7.353e-05          0.0000
 199       1.184e+00      -4.023e-17       2.490e-02           0.000           1.000           0.000       2.146e-04          0.0000
 200       1.166e+00      -4.023e-17       2.490e-02           0.000           1.000           0.000       3.384e-04          0.0000
 201       1.140e+00      -4.023e-17       2.490e-02           0.000           1.000           0.000       4.347e-04          0.0000
 202       1.107e+00      -4.023e-17       2.490e-02           0.000           1.000           0.000       4.958e-04          0.0000
 203       1.070e+00      -4.023e-17       2.490e-02           0.000           1.000           0.000       5.167e-04          0.0000
 204       1.033e+00      -4.023e-17       2.490e-02           0.000           1.000           0.000       4.958e-04          0.0000
 205       9.975e-01      -4.023e-17       2.490e-02           0.000           1.000           0.000       4.347e-04          0.0000
 206       9.675e-01      -4.023e-17       2.490e-02           0.000           1.000           0.000       3.384e-04          0.0000
 207       9.450e-01      -4.023e-17       2.490e-02           0.000           1.000           0.000       2.146e-04          0.0000
 208       9.319e-01      -4.023e-17       2.490e-02           0.000           1.000           0.000       7.353e-05          0.0000
Strip 20
 209       1.194e+00      -2.114e-17       1.308e-02           0.000           1.000           0.000       5.451e-05          0.0000
 210       1.186e+00      -2.114e-17       1.308e-02           0.000           1.000           0.000       1.591e-04          0.0000
 211       1.168e+00      -2.114e-17       1.308e-02           0.000           1.000           0.000       2.508e-04          0.0000
 212       1.141e+00      -2.114e-17       1.308e-02           0.000           1.000           0.000       3.222e-04          0.0000
 213       1.108e+00      -2.114e-17       1.308e-02           0.000           1.000           0.000       3.675e-04          0.0000
 214       1.070e+00      -2.114e-17       1.308e-02           0.000           1.000           0.000       3.831e-04          0.0000
 215       1.032e+00      -2.114e-17       1.308e-02           0.000           1.000           0.000       3.675e-04          0.0000
 216       9.967e-01      -2.114e-17       1.308e-02           0.000           1.000           0.000       3.222e-04          0.0000
 217       9.661e-01      -2.114e-17       1.308e-02           0.000           1.000           0.000       2.508e-04          0.0000
 218       9.433e-01      -2.114e-17       1.308e-02           0.000           1.000           0.000       1.591e-04          0.0000
 219       9.299e-01      -2.114e-17       1.308e-02           0.000           1.000           0.000       5.451e-05          0.0000
Strip 21
 220       1.196e+00      -8.186e-18       5.067e-03           0.000           1.000           0.000       3.353e-05          0.0000
 221       1.188e+00      -8.186e-18       5.067e-03           0.000           1.000           0.000       9.787e-05          0.0000
 222       1.169e+00      -8.186e-18       5.067e-03           0.000           1.000           0.000       1.543e-04          0.0000
 223       1.142e+00      -8.186e-18       5.067e-03           0.000           1.000           0.000       1.982e-04          0.0000
 224       1.108e+00      -8.186e-18       5.067e-03           0.000           1.000           0.000       2.260e-04          0.0000
 225       1.071e+00      -8.186e-18       5.067e-03           0.000           1.000           0.000       2.356e-04          0.0000
 226       1.032e+00      -8.186e-18       5.067e-03           0.000           1.000           0.000       2.260e-04          0.0000
 227       9.961e-01      -8.186e-18       5.067e-03           0.000           1.000           0.000       1.982e-04          0.0000
 228       9.652e-01      -8.186e-18       5.067e-03           0.000           1.000           0.000       1.543e-04          0.0000
 229       9.421e-01      -8.186e-18       5.067e-03           0.000           1.000           0.000       9.787e-05          0.0000
 230       9.286e-01      -8.186e-18       5.067e-03           0.000           1.000           0.000       3.353e-05          0.0000
Strip 22
 231       1.197e+00      -1.644e-18       1.018e-03           0.000           1.000           0.000       1.131e-05          0.0000
 232       1.189e+00      -1.644e-18       1.018e-03           0.000           1.000           0.000       3.303e-05         -0.0000
 233       1.170e+00      -1.644e-18       1.018e-03           0.000           1.000           0.000       5.207e-05          0.0000
 234       1.143e+00      -1.644e-18       1.018e-03           0.000           1.000           0.000       6.689e-05          0.0000
 235       1.109e+00      -1.644e-18       1.018e-03           0.000           1.000           0.000       7.629e-05          0.0000
 236       1.071e+00      -1.644e-18       1.018e-03           0.000           1.000           0.000       7.951e-05          0.0000
 237       1.032e+00      -1.644e-18       1.018e-03           0.000           1.000           0.000       7.629e-05          0.0000
 238       9.958e-01      -1.644e-18       1.018e-03           0.000           1.000           0.000       6.689e-05          0.0000
 239       9.647e-01      -1.644e-18       1.018e-03           0.000           1.000           0.000       5.207e-05          0.0000
 240       9.415e-01      -1.644e-18       1.018e-03           0.000           1.000           0.000       3.303e-05          0.0000
 241       9.279e-01      -1.644e-18       1.018e-03           0.000           1.000           0.000       1.131e-05          0.0000




