xflr5 v6.61

Rev 6
T1-12.1 m/s-VLM2-9.1kg-x-0.1m
QInf  =   12.120000 m/s
Alpha =    0.000000
Beta  =    0.000°
Phi   =    0.000°
Ctrl  =    0.000
CL    =    0.800900
Cy    =   -0.000000
Cd    =    0.021557     ICd   =    0.008913     PCd   =    0.012644
Cl   = -8.27946e-14
Cm   =   -0.553993
ICn   =   -0.000000     PCn   =   -0.000000 
XCP   =    0.062780     YCP   =    0.000000     ZCP   =    0.012815  
XNP   =    0.000000
Bending =   71.243434

Main Wing
  y-span        Chord      Ai         Cl        PCd          ICd        CmGeom    CmAirf@chord/4    XTrtop    XTrBot      XCP       BM
   -2.9798     0.1557    -3.143    0.349933    0.014949    0.019213   -0.403295   -0.053793     0.8990    1.0000    0.4028    0.0000
   -2.9371     0.1587    -2.264    0.555325    0.013615    0.021956   -0.629856   -0.078038     0.8517    1.0000    0.3897    0.0045
   -2.8534     0.1645    -1.508    0.694940    0.012520    0.018292   -0.763443   -0.088772     0.7786    1.0000    0.3769    0.0559
   -2.7318     0.1729    -1.019    0.773718    0.011957    0.013756   -0.817930   -0.092752     0.7126    1.0000    0.3690    0.2602
   -2.5771     0.1836    -0.739    0.815359    0.011647    0.010523   -0.826539   -0.094273     0.6593    1.0000    0.3647    0.7804
   -2.3952     0.1961    -0.592    0.836519    0.011414    0.008648   -0.811946   -0.094889     0.6236    1.0000    0.3625    1.8092
   -2.1931     0.2101    -0.524    0.846526    0.011157    0.007737   -0.787083   -0.095144     0.5985    1.0000    0.3615    3.5318
   -1.9785     0.2249    -0.502    0.850262    0.010893    0.007453   -0.758857   -0.095241     0.5822    1.0000    0.3611    6.0841
   -1.7597     0.2401    -0.511    0.850266    0.010622    0.007575   -0.730849   -0.095256     0.5717    1.0000    0.3611    9.5113
   -1.5451     0.2549    -0.539    0.847913    0.010364    0.007969   -0.704849   -0.095221     0.5649    1.0000    0.3614   13.7360
   -1.3430     0.2689    -0.579    0.844021    0.010129    0.008530   -0.681699   -0.095144     0.5625    1.0000    0.3618   18.5434
   -1.1611     0.2814    -0.625    0.839177    0.009896    0.009146   -0.661781   -0.095024     0.5629    1.0000    0.3623   23.5908
   -1.0064     0.2921    -0.666    0.833941    0.009697    0.009681   -0.645284   -0.094843     0.5652    1.0000    0.3628   28.4423
   -0.8848     0.3005    -0.698    0.828977    0.009535    0.010098   -0.632375   -0.094560     0.5687    1.0000    0.3632   32.6255
   -0.8011     0.3063    -0.736    0.825101    0.009425    0.010586   -0.623315   -0.094130     0.5721    1.0000    0.3632   35.7008
   -0.7584     0.3093    -0.791    0.823249    0.009377    0.011354   -0.618718   -0.093736     0.5731    1.0000    0.3630   37.3293
   -0.7119     0.3100    -0.729    0.826436    0.009413    0.010520   -0.620578   -0.094310     0.5677    1.0000    0.3632   39.1282
   -0.5828     0.3100    -0.591    0.831810    0.009494    0.008579   -0.624772   -0.095081     0.5584    1.0000    0.3634   44.3456
   -0.3738     0.3100    -0.488    0.836415    0.009563    0.007121   -0.627977   -0.095354     0.5505    1.0000    0.3631   53.6969
   -0.1648     0.3100    -0.449    0.838529    0.009595    0.006575   -0.629400   -0.095431     0.5468    1.0000    0.3629   64.1785
   -0.0357     0.3100    -0.442    0.838900    0.009600    0.006476   -0.629646   -0.095441     0.5462    1.0000    0.3628   71.2230
    0.0357     0.3100    -0.442    0.838900    0.009600    0.006476   -0.629646   -0.095441     0.5462    1.0000    0.3628   71.2434
    0.1648     0.3100    -0.449    0.838529    0.009595    0.006575   -0.629400   -0.095431     0.5468    1.0000    0.3629   64.1989
    0.3738     0.3100    -0.488    0.836415    0.009563    0.007121   -0.627977   -0.095354     0.5505    1.0000    0.3631   53.7173
    0.5828     0.3100    -0.591    0.831810    0.009494    0.008579   -0.624772   -0.095081     0.5584    1.0000    0.3634   44.3660
    0.7119     0.3100    -0.729    0.826436    0.009413    0.010520   -0.620578   -0.094310     0.5677    1.0000    0.3632   39.1486
    0.7584     0.3093    -0.791    0.823249    0.009377    0.011354   -0.618718   -0.093736     0.5731    1.0000    0.3630   37.3472
    0.8011     0.3063    -0.736    0.825101    0.009425    0.010586   -0.623315   -0.094130     0.5721    1.0000    0.3632   35.7138
    0.8848     0.3005    -0.698    0.828977    0.009535    0.010098   -0.632375   -0.094560     0.5687    1.0000    0.3632   32.6341
    1.0064     0.2921    -0.666    0.833941    0.009697    0.009681   -0.645284   -0.094843     0.5652    1.0000    0.3628   28.4471
    1.1611     0.2814    -0.625    0.839177    0.009896    0.009146   -0.661781   -0.095024     0.5629    1.0000    0.3623   23.5928
    1.3430     0.2689    -0.579    0.844021    0.010129    0.008530   -0.681699   -0.095144     0.5625    1.0000    0.3618   18.5434
    1.5451     0.2549    -0.539    0.847913    0.010364    0.007969   -0.704849   -0.095221     0.5649    1.0000    0.3614   13.7348
    1.7597     0.2401    -0.511    0.850266    0.010622    0.007575   -0.730849   -0.095256     0.5717    1.0000    0.3611    9.5096
    1.9785     0.2249    -0.502    0.850262    0.010893    0.007453   -0.758857   -0.095241     0.5822    1.0000    0.3611    6.0824
    2.1931     0.2101    -0.524    0.846526    0.011157    0.007737   -0.787083   -0.095144     0.5985    1.0000    0.3615    3.5304
    2.3952     0.1961    -0.592    0.836519    0.011414    0.008648   -0.811946   -0.094889     0.6236    1.0000    0.3625    1.8082
    2.5771     0.1836    -0.739    0.815359    0.011647    0.010523   -0.826539   -0.094273     0.6593    1.0000    0.3647    0.7799
    2.7318     0.1729    -1.019    0.773718    0.011957    0.013756   -0.817930   -0.092752     0.7126    1.0000    0.3690    0.2599
    2.8534     0.1645    -1.508    0.694940    0.012520    0.018292   -0.763443   -0.088772     0.7786    1.0000    0.3769    0.0558
    2.9371     0.1587    -2.264    0.555325    0.013615    0.021956   -0.629856   -0.078038     0.8517    1.0000    0.3897    0.0045
    2.9798     0.1557    -3.143    0.349933    0.014949    0.019213   -0.403295   -0.053793     0.8990    1.0000    0.4028    0.0000


Horizontal Stabilizer
  y-span        Chord      Ai         Cl        PCd          ICd        CmGeom    CmAirf@chord/4    XTrtop    XTrBot      XCP       BM
   -0.7457     0.1250     0.410   -0.050168    0.013728    0.000359    0.499897   -0.002982     1.0000    0.9879    0.1905    0.0000
   -0.7382     0.1250     0.373   -0.085601    0.013880    0.000558    0.822985   -0.004539     1.0000    0.9802    0.1969   -0.0000
   -0.7232     0.1250     0.313   -0.120547    0.013860    0.000659    1.142117   -0.005043     1.0000    0.9716    0.2081   -0.0002
   -0.7011     0.1250     0.235   -0.151317    0.013842    0.000619    1.423970   -0.004632     1.0000    0.9640    0.2194   -0.0011
   -0.6723     0.1250     0.146   -0.176915    0.013826    0.000451    1.658916   -0.003812     1.0000    0.9577    0.2284   -0.0034
   -0.6375     0.1250     0.058   -0.197322    0.013812    0.000200    1.846401   -0.002982     1.0000    0.9525    0.2349   -0.0085
   -0.5973     0.1250    -0.022   -0.213118    0.013801   -0.000080    1.991541   -0.002314     1.0000    0.9484    0.2391   -0.0177
   -0.5525     0.1250    -0.089   -0.225116    0.013751   -0.000349    2.101628   -0.001830     1.0000    0.9429    0.2418   -0.0325
   -0.5041     0.1250    -0.143   -0.234121    0.013701   -0.000586    2.184181   -0.001495     1.0000    0.9379    0.2436   -0.0543
   -0.4531     0.1250    -0.186   -0.240822    0.013663   -0.000782    2.245597   -0.001266     1.0000    0.9341    0.2447   -0.0840
   -0.4004     0.1250    -0.219   -0.245773    0.013635   -0.000940    2.290955   -0.001109     1.0000    0.9314    0.2455   -0.1220
   -0.3472     0.1250    -0.244   -0.249401    0.013615   -0.001062    2.324189   -0.001002     1.0000    0.9293    0.2460   -0.1683
   -0.2946     0.1250    -0.263   -0.252032    0.013600   -0.001155    2.348290   -0.000928     1.0000    0.9279    0.2463   -0.2220
   -0.2435     0.1250    -0.276   -0.253913    0.013590   -0.001224    2.365514   -0.000877     1.0000    0.9268    0.2465   -0.2815
   -0.1951     0.1250    -0.286   -0.255228    0.013582   -0.001274    2.377557   -0.000843     1.0000    0.9261    0.2467   -0.3449
   -0.1504     0.1250    -0.293   -0.256118    0.013577   -0.001308    2.385704   -0.000820     1.0000    0.9256    0.2468   -0.4095
   -0.1102     0.1250    -0.297   -0.256691    0.013574   -0.001330    2.390949   -0.000805     1.0000    0.9253    0.2468   -0.4725
   -0.0753     0.1250    -0.299   -0.257033    0.013572   -0.001343    2.394084   -0.000797     1.0000    0.9251    0.2469   -0.5309
   -0.0466     0.1250    -0.301   -0.257216    0.013571   -0.001350    2.395756   -0.000792     1.0000    0.9250    0.2469   -0.5817
   -0.0245     0.1250    -0.301   -0.257297    0.013571   -0.001354    2.396499   -0.000790     1.0000    0.9249    0.2469   -0.6224
   -0.0095     0.1250    -0.302   -0.257323    0.013570   -0.001355    2.396735   -0.000789     1.0000    0.9249    0.2469   -0.6509
   -0.0019     0.1250    -0.302   -0.257327    0.013570   -0.001355    2.396768   -0.000789     1.0000    0.9249    0.2469   -0.6655
    0.0019     0.1250    -0.302   -0.257327    0.013570   -0.001355    2.396768   -0.000789     1.0000    0.9249    0.2469   -0.6655
    0.0095     0.1250    -0.302   -0.257323    0.013570   -0.001355    2.396735   -0.000789     1.0000    0.9249    0.2469   -0.6509
    0.0245     0.1250    -0.301   -0.257297    0.013571   -0.001354    2.396499   -0.000790     1.0000    0.9249    0.2469   -0.6224
    0.0466     0.1250    -0.301   -0.257216    0.013571   -0.001350    2.395756   -0.000792     1.0000    0.9250    0.2469   -0.5817
    0.0753     0.1250    -0.299   -0.257033    0.013572   -0.001343    2.394084   -0.000797     1.0000    0.9251    0.2469   -0.5309
    0.1102     0.1250    -0.297   -0.256691    0.013574   -0.001330    2.390949   -0.000805     1.0000    0.9253    0.2468   -0.4725
    0.1504     0.1250    -0.293   -0.256118    0.013577   -0.001308    2.385704   -0.000820     1.0000    0.9256    0.2468   -0.4095
    0.1951     0.1250    -0.286   -0.255228    0.013582   -0.001274    2.377557   -0.000843     1.0000    0.9261    0.2467   -0.3449
    0.2435     0.1250    -0.276   -0.253913    0.013590   -0.001224    2.365514   -0.000877     1.0000    0.9268    0.2465   -0.2815
    0.2946     0.1250    -0.263   -0.252032    0.013600   -0.001155    2.348290   -0.000928     1.0000    0.9279    0.2463   -0.2220
    0.3472     0.1250    -0.244   -0.249401    0.013615   -0.001062    2.324189   -0.001002     1.0000    0.9293    0.2460   -0.1683
    0.4004     0.1250    -0.219   -0.245773    0.013635   -0.000940    2.290955   -0.001109     1.0000    0.9314    0.2455   -0.1220
    0.4531     0.1250    -0.186   -0.240822    0.013663   -0.000782    2.245597   -0.001266     1.0000    0.9341    0.2447   -0.0840
    0.5041     0.1250    -0.143   -0.234121    0.013701   -0.000586    2.184181   -0.001495     1.0000    0.9379    0.2436   -0.0543
    0.5525     0.1250    -0.089   -0.225116    0.013751   -0.000349    2.101628   -0.001830     1.0000    0.9429    0.2418   -0.0325
    0.5973     0.1250    -0.022   -0.213118    0.013801   -0.000080    1.991541   -0.002314     1.0000    0.9484    0.2391   -0.0177
    0.6375     0.1250     0.058   -0.197322    0.013812    0.000200    1.846401   -0.002982     1.0000    0.9525    0.2349   -0.0085
    0.6723     0.1250     0.146   -0.176915    0.013826    0.000451    1.658916   -0.003812     1.0000    0.9577    0.2284   -0.0034
    0.7011     0.1250     0.235   -0.151317    0.013842    0.000619    1.423970   -0.004632     1.0000    0.9640    0.2194   -0.0011
    0.7232     0.1250     0.313   -0.120547    0.013860    0.000659    1.142117   -0.005043     1.0000    0.9716    0.2081   -0.0002
    0.7382     0.1250     0.373   -0.085601    0.013880    0.000558    0.822985   -0.004539     1.0000    0.9802    0.1969   -0.0000
    0.7457     0.1250     0.410   -0.050168    0.013728    0.000359    0.499897   -0.002982     1.0000    0.9879    0.1905    0.0000


Vertical Stabilizer (XFLR5)
  y-span        Chord      Ai         Cl        PCd          ICd        CmGeom    CmAirf@chord/4    XTrtop    XTrBot      XCP       BM
   -0.3989     0.1254     0.000    0.000000    0.013412   -0.000000    0.042666    0.000000     1.0000    0.9985   -0.0765    0.0000
   -0.3948     0.1269     0.000    0.000000    0.013351   -0.000000    0.041538    0.000000     1.0000    0.9985    0.1227    0.0000
   -0.3868     0.1299     0.000    0.000000    0.013230   -0.000000    0.039393    0.000000     1.0000    0.9987    0.1907    0.0000
   -0.3750     0.1343     0.000    0.000000    0.013052   -0.000000    0.036433    0.000000     1.0000    0.9989    0.2206    0.0000
   -0.3596     0.1401     0.000    0.000000    0.012820   -0.000000    0.032905    0.000000     1.0000    0.9991    0.2349    0.0000
   -0.3410     0.1471     0.000    0.000000    0.012539   -0.000000    0.029067    0.000000     1.0000    0.9994    0.2413    0.0000
   -0.3195     0.1551     0.000    0.000000    0.012215   -0.000000    0.025152    0.000000     1.0000    0.9998    0.2437    0.0000
   -0.2955     0.1641     0.000    0.000000    0.011906   -0.000000    0.021438    0.000000     1.0000    1.0000    0.2438    0.0000
   -0.2696     0.1738     0.000    0.000000    0.011670   -0.000000    0.018104    0.000000     1.0000    1.0000    0.2428    0.0000
   -0.2423     0.1841     0.000    0.000000    0.011436   -0.000000    0.015057    0.000000     1.0000    1.0000    0.2410    0.0000
   -0.2142     0.1946     0.000    0.000000    0.011221   -0.000000    0.012348    0.000000     1.0000    1.0000    0.2387    0.0000
   -0.1857     0.2053     0.000    0.000000    0.011021   -0.000000    0.009971    0.000000     1.0000    1.0000    0.2359    0.0000
   -0.1576     0.2158     0.000    0.000000    0.010810   -0.000000    0.007891    0.000000     0.9970    0.9970    0.2326    0.0000
   -0.1302     0.2261     0.000    0.000000    0.010570   -0.000000    0.006090    0.000000     0.9903    0.9903    0.2285    0.0000
   -0.1044     0.2358     0.000    0.000000    0.010321   -0.000000    0.004569    0.000000     0.9838    0.9838    0.2238    0.0000
   -0.0804     0.2447     0.000    0.000000    0.010103   -0.000000    0.003320    0.000000     0.9792    0.9792    0.2183   -0.0000
   -0.0589     0.2528     0.000    0.000000    0.009891   -0.000000    0.002305    0.000000     0.9744    0.9744    0.2123   -0.0000
   -0.0403     0.2598     0.000    0.000000    0.009711   -0.000000    0.001506    0.000000     0.9708    0.9707    0.2058   -0.0000
   -0.0249     0.2656     0.000    0.000000    0.009565   -0.000000    0.000897    0.000000     0.9682    0.9682    0.1992   -0.0000
   -0.0131     0.2700     0.000    0.000000    0.009453   -0.000000    0.000458    0.000000     0.9664    0.9664    0.1922   -0.0000
   -0.0051     0.2730     0.000    0.000000    0.009380   -0.000000    0.000174    0.000000     0.9653    0.9653    0.1860   -0.0000
   -0.0010     0.2745     0.000    0.000000    0.009343   -0.000000    0.000035    0.000000     0.9648    0.9648    0.1830   -0.0000


Main Wing Cp Coefficients
 Panel     CtrlPt.x        CtrlPt.y        CtrlPt.z       Nx      Ny       Nz        Area       Cp
Main WingCp Coefficients
Strip 1
   0       1.545e-01      -2.979e+00       6.771e-02           0.212           0.024           0.977       6.929e-05          0.1614
   1       1.499e-01      -2.979e+00       6.868e-02           0.197           0.025           0.980       2.016e-04          0.2208
   2       1.394e-01      -2.979e+00       7.069e-02           0.173           0.027           0.985       3.163e-04          0.2460
   3       1.239e-01      -2.979e+00       7.331e-02           0.152           0.028           0.988       4.049e-04          0.2830
   4       1.046e-01      -2.978e+00       7.611e-02           0.125           0.030           0.992       4.601e-04          0.3132
   5       8.324e-02      -2.978e+00       7.864e-02           0.095           0.031           0.995       4.779e-04          0.3339
   6       6.139e-02      -2.978e+00       8.057e-02           0.066           0.032           0.997       4.574e-04          0.3623
   7       4.086e-02      -2.978e+00       8.178e-02           0.036           0.032           0.999       4.004e-04          0.4155
   8       2.331e-02      -2.978e+00       8.226e-02          -0.003           0.033           0.999       3.115e-04          0.4860
   9       1.018e-02      -2.978e+00       8.211e-02          -0.055           0.033           0.998       1.979e-04          0.5758
  10       2.514e-03      -2.978e+00       8.159e-02          -0.178           0.033           0.984       6.880e-05          0.3241
Strip 2
  11       1.574e-01      -2.936e+00       6.603e-02           0.212           0.024           0.977       2.091e-04          0.2012
  12       1.527e-01      -2.936e+00       6.702e-02           0.197           0.025           0.980       6.084e-04          0.2993
  13       1.420e-01      -2.936e+00       6.907e-02           0.173           0.027           0.985       9.546e-04          0.3646
  14       1.262e-01      -2.936e+00       7.173e-02           0.152           0.028           0.988       1.222e-03          0.4359
  15       1.066e-01      -2.936e+00       7.459e-02           0.125           0.030           0.992       1.388e-03          0.4931
  16       8.482e-02      -2.936e+00       7.717e-02           0.095           0.031           0.995       1.442e-03          0.5348
  17       6.255e-02      -2.936e+00       7.913e-02           0.066           0.032           0.997       1.380e-03          0.5818
  18       4.163e-02      -2.936e+00       8.036e-02           0.036           0.032           0.999       1.208e-03          0.6529
  19       2.376e-02      -2.936e+00       8.086e-02          -0.003           0.033           0.999       9.401e-04          0.7457
  20       1.037e-02      -2.936e+00       8.070e-02          -0.055           0.033           0.998       5.973e-04          0.9092
  21       2.561e-03      -2.936e+00       8.017e-02          -0.178           0.033           0.984       2.076e-04          1.0204
Strip 3
  22       1.632e-01      -2.852e+00       6.273e-02           0.212           0.024           0.977       3.519e-04          0.2243
  23       1.583e-01      -2.852e+00       6.376e-02           0.197           0.025           0.980       1.024e-03          0.3412
  24       1.472e-01      -2.852e+00       6.589e-02           0.173           0.027           0.985       1.607e-03          0.4285
  25       1.308e-01      -2.852e+00       6.865e-02           0.152           0.028           0.988       2.057e-03          0.5221
  26       1.105e-01      -2.852e+00       7.161e-02           0.125           0.030           0.992       2.337e-03          0.6001
  27       8.791e-02      -2.852e+00       7.428e-02           0.095           0.031           0.995       2.427e-03          0.6597
  28       6.483e-02      -2.852e+00       7.631e-02           0.066           0.032           0.997       2.323e-03          0.7229
  29       4.315e-02      -2.852e+00       7.759e-02           0.036           0.032           0.999       2.034e-03          0.8136
  30       2.462e-02      -2.852e+00       7.811e-02          -0.003           0.033           0.999       1.582e-03          0.9428
  31       1.075e-02      -2.852e+00       7.794e-02          -0.055           0.033           0.998       1.005e-03          1.2015
  32       2.655e-03      -2.852e+00       7.739e-02          -0.178           0.033           0.984       3.494e-04          1.6758
Strip 4
  33       1.715e-01      -2.731e+00       5.795e-02           0.212           0.024           0.977       4.978e-04          0.2360
  34       1.663e-01      -2.731e+00       5.903e-02           0.197           0.025           0.980       1.448e-03          0.3621
  35       1.547e-01      -2.731e+00       6.126e-02           0.173           0.027           0.985       2.273e-03          0.4600
  36       1.375e-01      -2.731e+00       6.416e-02           0.152           0.028           0.988       2.909e-03          0.5645
  37       1.162e-01      -2.731e+00       6.728e-02           0.125           0.030           0.992       3.305e-03          0.6533
  38       9.240e-02      -2.731e+00       7.008e-02           0.095           0.031           0.995       3.433e-03          0.7239
  39       6.814e-02      -2.731e+00       7.222e-02           0.066           0.032           0.997       3.286e-03          0.7991
  40       4.535e-02      -2.730e+00       7.357e-02           0.036           0.032           0.999       2.877e-03          0.9061
  41       2.588e-02      -2.730e+00       7.411e-02          -0.003           0.033           0.999       2.238e-03          1.0636
  42       1.130e-02      -2.730e+00       7.393e-02          -0.055           0.033           0.998       1.422e-03          1.3895
  43       2.790e-03      -2.730e+00       7.335e-02          -0.178           0.033           0.984       4.943e-04          2.1061
Strip 5
  44       1.821e-01      -2.576e+00       5.186e-02           0.212           0.024           0.977       6.441e-04          0.2418
  45       1.766e-01      -2.576e+00       5.300e-02           0.197           0.025           0.980       1.874e-03          0.3723
  46       1.643e-01      -2.576e+00       5.538e-02           0.173           0.027           0.985       2.940e-03          0.4753
  47       1.460e-01      -2.576e+00       5.846e-02           0.152           0.028           0.988       3.764e-03          0.5851
  48       1.233e-01      -2.576e+00       6.177e-02           0.125           0.030           0.992       4.277e-03          0.6796
  49       9.812e-02      -2.576e+00       6.475e-02           0.095           0.031           0.995       4.442e-03          0.7562
  50       7.236e-02      -2.576e+00       6.702e-02           0.066           0.032           0.997       4.252e-03          0.8385
  51       4.816e-02      -2.576e+00       6.844e-02           0.036           0.032           0.999       3.722e-03          0.9554
  52       2.748e-02      -2.576e+00       6.902e-02          -0.003           0.033           0.999       2.896e-03          1.1301
  53       1.200e-02      -2.576e+00       6.883e-02          -0.055           0.033           0.998       1.840e-03          1.4953
  54       2.963e-03      -2.576e+00       6.822e-02          -0.178           0.033           0.984       6.395e-04          2.3507
Strip 6
  55       1.946e-01      -2.395e+00       4.470e-02           0.212           0.024           0.977       7.851e-04          0.2445
  56       1.887e-01      -2.395e+00       4.592e-02           0.197           0.025           0.980       2.284e-03          0.3772
  57       1.755e-01      -2.394e+00       4.846e-02           0.173           0.027           0.985       3.584e-03          0.4827
  58       1.560e-01      -2.394e+00       5.175e-02           0.152           0.028           0.988       4.588e-03          0.5951
  59       1.318e-01      -2.394e+00       5.528e-02           0.125           0.030           0.992       5.213e-03          0.6924
  60       1.048e-01      -2.394e+00       5.847e-02           0.095           0.031           0.995       5.415e-03          0.7721
  61       7.731e-02      -2.394e+00       6.089e-02           0.066           0.032           0.997       5.183e-03          0.8583
  62       5.146e-02      -2.394e+00       6.242e-02           0.036           0.032           0.999       4.538e-03          0.9806
  63       2.936e-02      -2.394e+00       6.303e-02          -0.003           0.033           0.999       3.530e-03          1.1646
  64       1.282e-02      -2.394e+00       6.284e-02          -0.055           0.033           0.998       2.243e-03          1.5508
  65       3.166e-03      -2.394e+00       6.218e-02          -0.178           0.033           0.984       7.796e-04          2.4796
Strip 7
  66       2.084e-01      -2.193e+00       3.674e-02           0.212           0.024           0.977       9.126e-04          0.2458
  67       2.022e-01      -2.193e+00       3.805e-02           0.197           0.025           0.980       2.655e-03          0.3795
  68       1.880e-01      -2.192e+00       4.077e-02           0.173           0.027           0.985       4.166e-03          0.4862
  69       1.671e-01      -2.192e+00       4.430e-02           0.152           0.028           0.988       5.333e-03          0.5998
  70       1.412e-01      -2.192e+00       4.808e-02           0.125           0.030           0.992       6.060e-03          0.6983
  71       1.123e-01      -2.192e+00       5.149e-02           0.095           0.031           0.995       6.294e-03          0.7795
  72       8.282e-02      -2.192e+00       5.409e-02           0.066           0.032           0.997       6.025e-03          0.8676
  73       5.512e-02      -2.192e+00       5.572e-02           0.036           0.032           0.999       5.274e-03          0.9925
  74       3.145e-02      -2.192e+00       5.638e-02          -0.003           0.033           0.999       4.103e-03          1.1810
  75       1.373e-02      -2.192e+00       5.617e-02          -0.055           0.033           0.998       2.607e-03          1.5774
  76       3.391e-03      -2.192e+00       5.547e-02          -0.178           0.033           0.984       9.061e-04          2.5416
Strip 8
  77       2.231e-01      -1.978e+00       2.829e-02           0.212           0.024           0.977       1.016e-03          0.2463
  78       2.164e-01      -1.978e+00       2.970e-02           0.197           0.025           0.980       2.956e-03          0.3804
  79       2.013e-01      -1.978e+00       3.261e-02           0.173           0.027           0.985       4.638e-03          0.4874
  80       1.789e-01      -1.978e+00       3.638e-02           0.152           0.028           0.988       5.938e-03          0.6015
  81       1.511e-01      -1.978e+00       4.044e-02           0.125           0.030           0.992       6.746e-03          0.7006
  82       1.202e-01      -1.978e+00       4.409e-02           0.095           0.031           0.995       7.008e-03          0.7823
  83       8.866e-02      -1.978e+00       4.687e-02           0.066           0.032           0.997       6.708e-03          0.8711
  84       5.901e-02      -1.978e+00       4.862e-02           0.036           0.032           0.999       5.872e-03          0.9970
  85       3.367e-02      -1.978e+00       4.932e-02          -0.003           0.033           0.999       4.568e-03          1.1872
  86       1.470e-02      -1.978e+00       4.910e-02          -0.055           0.033           0.998       2.902e-03          1.5873
  87       3.630e-03      -1.978e+00       4.834e-02          -0.178           0.033           0.984       1.009e-03          2.5648
Strip 9
  88       2.381e-01      -1.759e+00       1.968e-02           0.212           0.024           0.977       1.084e-03          0.2464
  89       2.310e-01      -1.759e+00       2.118e-02           0.197           0.025           0.980       3.155e-03          0.3804
  90       2.148e-01      -1.759e+00       2.428e-02           0.173           0.027           0.985       4.950e-03          0.4875
  91       1.909e-01      -1.759e+00       2.831e-02           0.152           0.028           0.988       6.337e-03          0.6016
  92       1.613e-01      -1.759e+00       3.264e-02           0.125           0.030           0.992       7.200e-03          0.7006
  93       1.283e-01      -1.759e+00       3.654e-02           0.095           0.031           0.995       7.479e-03          0.7824
  94       9.462e-02      -1.759e+00       3.951e-02           0.066           0.032           0.997       7.159e-03          0.8711
  95       6.298e-02      -1.759e+00       4.137e-02           0.036           0.032           0.999       6.267e-03          0.9970
  96       3.594e-02      -1.759e+00       4.212e-02          -0.003           0.033           0.999       4.875e-03          1.1871
  97       1.569e-02      -1.759e+00       4.188e-02          -0.055           0.033           0.998       3.097e-03          1.5872
  98       3.875e-03      -1.759e+00       4.108e-02          -0.178           0.033           0.984       1.077e-03          2.5644
Strip 10
  99       2.529e-01      -1.545e+00       1.123e-02           0.212           0.024           0.977       1.107e-03          0.2461
 100       2.452e-01      -1.545e+00       1.282e-02           0.197           0.025           0.980       3.221e-03          0.3799
 101       2.281e-01      -1.545e+00       1.612e-02           0.173           0.027           0.985       5.054e-03          0.4868
 102       2.027e-01      -1.545e+00       2.040e-02           0.152           0.028           0.988       6.469e-03          0.6006
 103       1.713e-01      -1.545e+00       2.499e-02           0.125           0.030           0.992       7.351e-03          0.6993
 104       1.362e-01      -1.545e+00       2.913e-02           0.095           0.031           0.995       7.635e-03          0.7807
 105       1.005e-01      -1.545e+00       3.228e-02           0.066           0.032           0.997       7.309e-03          0.8689
 106       6.687e-02      -1.545e+00       3.427e-02           0.036           0.032           0.999       6.398e-03          0.9942
 107       3.816e-02      -1.544e+00       3.506e-02          -0.003           0.033           0.999       4.978e-03          1.1832
 108       1.666e-02      -1.544e+00       3.481e-02          -0.055           0.033           0.998       3.162e-03          1.5807
 109       4.114e-03      -1.545e+00       3.395e-02          -0.178           0.033           0.984       1.099e-03          2.5491
Strip 11
 110       2.667e-01      -1.343e+00       3.277e-03           0.212           0.024           0.977       1.076e-03          0.2457
 111       2.587e-01      -1.343e+00       4.953e-03           0.197           0.025           0.980       3.131e-03          0.3791
 112       2.406e-01      -1.343e+00       8.431e-03           0.173           0.027           0.985       4.913e-03          0.4855
 113       2.138e-01      -1.343e+00       1.295e-02           0.152           0.028           0.988       6.289e-03          0.5988
 114       1.807e-01      -1.343e+00       1.779e-02           0.125           0.030           0.992       7.146e-03          0.6970
 115       1.437e-01      -1.343e+00       2.216e-02           0.095           0.031           0.995       7.422e-03          0.7778
 116       1.060e-01      -1.343e+00       2.548e-02           0.066           0.032           0.997       7.105e-03          0.8653
 117       7.053e-02      -1.342e+00       2.757e-02           0.036           0.032           0.999       6.220e-03          0.9895
 118       4.025e-02      -1.342e+00       2.841e-02          -0.003           0.033           0.999       4.839e-03          1.1767
 119       1.757e-02      -1.342e+00       2.814e-02          -0.055           0.033           0.998       3.074e-03          1.5702
 120       4.339e-03      -1.343e+00       2.724e-02          -0.178           0.033           0.984       1.069e-03          2.5244
Strip 12
 121       2.792e-01      -1.161e+00      -3.885e-03           0.212           0.024           0.977       9.873e-04          0.2451
 122       2.708e-01      -1.161e+00      -2.130e-03           0.197           0.025           0.980       2.872e-03          0.3781
 123       2.518e-01      -1.161e+00       1.511e-03           0.173           0.027           0.985       4.507e-03          0.4839
 124       2.238e-01      -1.161e+00       6.238e-03           0.152           0.028           0.988       5.770e-03          0.5966
 125       1.891e-01      -1.161e+00       1.131e-02           0.125           0.030           0.992       6.556e-03          0.6942
 126       1.504e-01      -1.161e+00       1.588e-02           0.095           0.031           0.995       6.810e-03          0.7742
 127       1.109e-01      -1.161e+00       1.936e-02           0.066           0.032           0.997       6.519e-03          0.8608
 128       7.383e-02      -1.161e+00       2.155e-02           0.036           0.032           0.999       5.707e-03          0.9838
 129       4.213e-02      -1.161e+00       2.243e-02          -0.003           0.033           0.999       4.439e-03          1.1688
 130       1.839e-02      -1.161e+00       2.215e-02          -0.055           0.033           0.998       2.821e-03          1.5574
 131       4.542e-03      -1.161e+00       2.120e-02          -0.178           0.033           0.984       9.804e-04          2.4944
Strip 13
 132       2.898e-01      -1.007e+00      -9.975e-03           0.212           0.024           0.977       8.410e-04          0.2444
 133       2.811e-01      -1.007e+00      -8.153e-03           0.197           0.025           0.980       2.447e-03          0.3768
 134       2.614e-01      -1.006e+00      -4.374e-03           0.173           0.027           0.985       3.840e-03          0.4820
 135       2.323e-01      -1.006e+00       5.324e-04           0.152           0.028           0.988       4.915e-03          0.5940
 136       1.963e-01      -1.006e+00       5.796e-03           0.125           0.030           0.992       5.585e-03          0.6909
 137       1.561e-01      -1.006e+00       1.054e-02           0.095           0.031           0.995       5.801e-03          0.7702
 138       1.151e-01      -1.006e+00       1.415e-02           0.066           0.032           0.997       5.553e-03          0.8560
 139       7.663e-02      -1.006e+00       1.642e-02           0.036           0.032           0.999       4.861e-03          0.9776
 140       4.373e-02      -1.006e+00       1.734e-02          -0.003           0.033           0.999       3.782e-03          1.1605
 141       1.909e-02      -1.006e+00       1.704e-02          -0.055           0.033           0.998       2.403e-03          1.5440
 142       4.715e-03      -1.006e+00       1.606e-02          -0.178           0.033           0.984       8.352e-04          2.4631
Strip 14
 143       2.981e-01      -8.851e-01      -1.476e-02           0.212           0.024           0.977       6.429e-04          0.2435
 144       2.892e-01      -8.851e-01      -1.289e-02           0.197           0.025           0.980       1.870e-03          0.3753
 145       2.689e-01      -8.850e-01      -8.998e-03           0.173           0.027           0.985       2.935e-03          0.4798
 146       2.390e-01      -8.849e-01      -3.950e-03           0.152           0.028           0.988       3.757e-03          0.5912
 147       2.019e-01      -8.848e-01       1.465e-03           0.125           0.030           0.992       4.269e-03          0.6875
 148       1.606e-01      -8.847e-01       6.344e-03           0.095           0.031           0.995       4.435e-03          0.7663
 149       1.185e-01      -8.846e-01       1.006e-02           0.066           0.032           0.997       4.245e-03          0.8514
 150       7.884e-02      -8.846e-01       1.240e-02           0.036           0.032           0.999       3.716e-03          0.9721
 151       4.499e-02      -8.846e-01       1.334e-02          -0.003           0.033           0.999       2.891e-03          1.1531
 152       1.964e-02      -8.846e-01       1.304e-02          -0.055           0.033           0.998       1.837e-03          1.5323
 153       4.850e-03      -8.846e-01       1.203e-02          -0.178           0.033           0.984       6.384e-04          2.4356
Strip 15
 154       3.039e-01      -8.014e-01      -1.806e-02           0.212           0.024           0.977       4.035e-04          0.2424
 155       2.947e-01      -8.014e-01      -1.615e-02           0.197           0.025           0.980       1.174e-03          0.3733
 156       2.741e-01      -8.013e-01      -1.218e-02           0.173           0.027           0.985       1.842e-03          0.4771
 157       2.436e-01      -8.012e-01      -7.038e-03           0.152           0.028           0.988       2.358e-03          0.5882
 158       2.058e-01      -8.011e-01      -1.518e-03           0.125           0.030           0.992       2.680e-03          0.6844
 159       1.637e-01      -8.010e-01       3.455e-03           0.095           0.031           0.995       2.783e-03          0.7632
 160       1.207e-01      -8.010e-01       7.245e-03           0.066           0.032           0.997       2.664e-03          0.8481
 161       8.036e-02      -8.009e-01       9.625e-03           0.036           0.032           0.999       2.332e-03          0.9683
 162       4.585e-02      -8.009e-01       1.058e-02          -0.003           0.033           0.999       1.814e-03          1.1481
 163       2.002e-02      -8.009e-01       1.028e-02          -0.055           0.033           0.998       1.153e-03          1.5243
 164       4.944e-03      -8.009e-01       9.247e-03          -0.178           0.033           0.984       4.007e-04          2.4168
Strip 16
 165       3.068e-01      -7.588e-01      -1.974e-02           0.212           0.024           0.977       1.376e-04          0.2403
 166       2.976e-01      -7.587e-01      -1.781e-02           0.197           0.025           0.980       4.002e-04          0.3706
 167       2.767e-01      -7.587e-01      -1.381e-02           0.173           0.027           0.985       6.280e-04          0.4748
 168       2.460e-01      -7.586e-01      -8.612e-03           0.152           0.028           0.988       8.040e-04          0.5864
 169       2.078e-01      -7.585e-01      -3.039e-03           0.125           0.030           0.992       9.135e-04          0.6830
 170       1.653e-01      -7.584e-01       1.982e-03           0.095           0.031           0.995       9.489e-04          0.7619
 171       1.219e-01      -7.583e-01       5.809e-03           0.066           0.032           0.997       9.083e-04          0.8469
 172       8.113e-02      -7.583e-01       8.211e-03           0.036           0.032           0.999       7.951e-04          0.9669
 173       4.629e-02      -7.583e-01       9.178e-03          -0.003           0.033           0.999       6.186e-04          1.1464
 174       2.021e-02      -7.583e-01       8.869e-03          -0.055           0.033           0.998       3.930e-04          1.5215
 175       4.991e-03      -7.583e-01       7.830e-03          -0.178           0.033           0.984       1.366e-04          2.4086
Strip 17
 176       3.075e-01      -7.123e-01      -2.016e-02           0.212           0.000           0.977       4.571e-04          0.2423
 177       2.983e-01      -7.122e-01      -1.823e-02           0.197           0.000           0.980       1.330e-03          0.3733
 178       2.774e-01      -7.122e-01      -1.422e-02           0.173           0.000           0.985       2.087e-03          0.4773
 179       2.466e-01      -7.121e-01      -9.009e-03           0.152           0.000           0.988       2.671e-03          0.5887
 180       2.083e-01      -7.120e-01      -3.423e-03           0.125           0.000           0.992       3.034e-03          0.6853
 181       1.657e-01      -7.119e-01       1.610e-03           0.095           0.000           0.995       3.151e-03          0.7644
 182       1.222e-01      -7.119e-01       5.446e-03           0.066           0.000           0.998       3.016e-03          0.8495
 183       8.133e-02      -7.118e-01       7.855e-03           0.036          -0.000           0.999       2.640e-03          0.9697
 184       4.640e-02      -7.118e-01       8.824e-03          -0.003          -0.000           1.000       2.054e-03          1.1495
 185       2.026e-02      -7.118e-01       8.514e-03          -0.055          -0.000           0.998       1.305e-03          1.5255
 186       5.003e-03      -7.118e-01       7.472e-03          -0.178          -0.000           0.984       4.536e-04          2.4180
Strip 18
 187       3.075e-01      -5.831e-01      -2.016e-02           0.212           0.000           0.977       1.197e-03          0.2444
 188       2.983e-01      -5.830e-01      -1.823e-02           0.197           0.000           0.980       3.481e-03          0.3768
 189       2.774e-01      -5.830e-01      -1.422e-02           0.173           0.000           0.985       5.463e-03          0.4817
 190       2.466e-01      -5.829e-01      -9.010e-03           0.152           0.000           0.988       6.992e-03          0.5935
 191       2.083e-01      -5.828e-01      -3.424e-03           0.125           0.000           0.992       7.944e-03          0.6900
 192       1.657e-01      -5.828e-01       1.610e-03           0.095           0.000           0.995       8.250e-03          0.7689
 193       1.222e-01      -5.827e-01       5.446e-03           0.066           0.000           0.998       7.897e-03          0.8540
 194       8.133e-02      -5.827e-01       7.855e-03           0.036          -0.000           0.999       6.913e-03          0.9746
 195       4.640e-02      -5.827e-01       8.824e-03          -0.003          -0.000           1.000       5.378e-03          1.1556
 196       2.026e-02      -5.827e-01       8.514e-03          -0.055          -0.000           0.998       3.417e-03          1.5353
 197       5.003e-03      -5.827e-01       7.473e-03          -0.178          -0.000           0.984       1.188e-03          2.4416
Strip 19
 198       3.075e-01      -3.740e-01      -2.016e-02           0.212           0.000           0.977       1.479e-03          0.2453
 199       2.983e-01      -3.740e-01      -1.823e-02           0.197           0.000           0.980       4.303e-03          0.3782
 200       2.774e-01      -3.739e-01      -1.422e-02           0.173           0.000           0.985       6.752e-03          0.4838
 201       2.466e-01      -3.739e-01      -9.011e-03           0.152           0.000           0.988       8.643e-03          0.5962
 202       2.083e-01      -3.739e-01      -3.424e-03           0.125           0.000           0.992       9.819e-03          0.6932
 203       1.657e-01      -3.738e-01       1.610e-03           0.095           0.000           0.995       1.020e-02          0.7725
 204       1.222e-01      -3.738e-01       5.446e-03           0.066           0.000           0.998       9.761e-03          0.8582
 205       8.133e-02      -3.738e-01       7.855e-03           0.036          -0.000           0.999       8.545e-03          0.9797
 206       4.640e-02      -3.737e-01       8.824e-03          -0.003          -0.000           1.000       6.647e-03          1.1625
 207       2.026e-02      -3.737e-01       8.515e-03          -0.055          -0.000           0.998       4.223e-03          1.5463
 208       5.003e-03      -3.738e-01       7.473e-03          -0.178          -0.000           0.984       1.468e-03          2.4674
Strip 20
 209       3.075e-01      -1.649e-01      -2.016e-02           0.212           0.000           0.977       1.197e-03          0.2456
 210       2.983e-01      -1.649e-01      -1.823e-02           0.197           0.000           0.980       3.481e-03          0.3788
 211       2.774e-01      -1.649e-01      -1.422e-02           0.173           0.000           0.985       5.463e-03          0.4846
 212       2.466e-01      -1.649e-01      -9.011e-03           0.152           0.000           0.988       6.992e-03          0.5972
 213       2.083e-01      -1.649e-01      -3.425e-03           0.125           0.000           0.992       7.944e-03          0.6945
 214       1.657e-01      -1.648e-01       1.609e-03           0.095           0.000           0.995       8.250e-03          0.7741
 215       1.222e-01      -1.648e-01       5.446e-03           0.066           0.000           0.998       7.897e-03          0.8601
 216       8.133e-02      -1.648e-01       7.855e-03           0.036          -0.000           0.999       6.913e-03          0.9822
 217       4.640e-02      -1.648e-01       8.824e-03          -0.003          -0.000           1.000       5.378e-03          1.1659
 218       2.026e-02      -1.648e-01       8.515e-03          -0.055          -0.000           0.998       3.417e-03          1.5518
 219       5.003e-03      -1.648e-01       7.473e-03          -0.178          -0.000           0.984       1.188e-03          2.4802
Strip 21
 220       3.075e-01      -3.571e-02      -2.016e-02           0.212           0.000           0.977       4.571e-04          0.2457
 221       2.983e-01      -3.571e-02      -1.823e-02           0.197           0.000           0.980       1.330e-03          0.3789
 222       2.774e-01      -3.571e-02      -1.422e-02           0.173           0.000           0.985       2.087e-03          0.4848
 223       2.466e-01      -3.570e-02      -9.012e-03           0.152           0.000           0.988       2.671e-03          0.5974
 224       2.083e-01      -3.570e-02      -3.425e-03           0.125           0.000           0.992       3.034e-03          0.6947
 225       1.657e-01      -3.570e-02       1.609e-03           0.095           0.000           0.995       3.151e-03          0.7744
 226       1.222e-01      -3.569e-02       5.445e-03           0.066           0.000           0.998       3.016e-03          0.8604
 227       8.133e-02      -3.569e-02       7.855e-03           0.036          -0.000           0.999       2.640e-03          0.9826
 228       4.640e-02      -3.569e-02       8.824e-03          -0.003          -0.000           1.000       2.054e-03          1.1665
 229       2.026e-02      -3.569e-02       8.515e-03          -0.055          -0.000           0.998       1.305e-03          1.5528
 230       5.003e-03      -3.569e-02       7.473e-03          -0.178          -0.000           0.984       4.536e-04          2.4827
Strip 22
 231       3.075e-01       3.571e-02      -2.016e-02           0.212          -0.000           0.977       4.571e-04          0.2457
 232       2.983e-01       3.571e-02      -1.823e-02           0.197          -0.000           0.980       1.330e-03          0.3789
 233       2.774e-01       3.571e-02      -1.422e-02           0.173          -0.000           0.985       2.087e-03          0.4848
 234       2.466e-01       3.570e-02      -9.012e-03           0.152          -0.000           0.988       2.671e-03          0.5974
 235       2.083e-01       3.570e-02      -3.425e-03           0.125          -0.000           0.992       3.034e-03          0.6947
 236       1.657e-01       3.570e-02       1.609e-03           0.095          -0.000           0.995       3.151e-03          0.7744
 237       1.222e-01       3.569e-02       5.445e-03           0.066          -0.000           0.998       3.016e-03          0.8604
 238       8.133e-02       3.569e-02       7.855e-03           0.036           0.000           0.999       2.640e-03          0.9826
 239       4.640e-02       3.569e-02       8.824e-03          -0.003           0.000           1.000       2.054e-03          1.1665
 240       2.026e-02       3.569e-02       8.515e-03          -0.055           0.000           0.998       1.305e-03          1.5528
 241       5.003e-03       3.569e-02       7.473e-03          -0.178           0.000           0.984       4.536e-04          2.4827
Strip 23
 242       3.075e-01       1.649e-01      -2.016e-02           0.212          -0.000           0.977       1.197e-03          0.2456
 243       2.983e-01       1.649e-01      -1.823e-02           0.197          -0.000           0.980       3.481e-03          0.3788
 244       2.774e-01       1.649e-01      -1.422e-02           0.173          -0.000           0.985       5.463e-03          0.4846
 245       2.466e-01       1.649e-01      -9.011e-03           0.152          -0.000           0.988       6.992e-03          0.5972
 246       2.083e-01       1.649e-01      -3.425e-03           0.125          -0.000           0.992       7.944e-03          0.6945
 247       1.657e-01       1.648e-01       1.609e-03           0.095          -0.000           0.995       8.250e-03          0.7741
 248       1.222e-01       1.648e-01       5.446e-03           0.066          -0.000           0.998       7.897e-03          0.8601
 249       8.133e-02       1.648e-01       7.855e-03           0.036           0.000           0.999       6.913e-03          0.9822
 250       4.640e-02       1.648e-01       8.824e-03          -0.003           0.000           1.000       5.378e-03          1.1659
 251       2.026e-02       1.648e-01       8.515e-03          -0.055           0.000           0.998       3.417e-03          1.5518
 252       5.003e-03       1.648e-01       7.473e-03          -0.178           0.000           0.984       1.188e-03          2.4802
Strip 24
 253       3.075e-01       3.740e-01      -2.016e-02           0.212          -0.000           0.977       1.479e-03          0.2453
 254       2.983e-01       3.740e-01      -1.823e-02           0.197          -0.000           0.980       4.303e-03          0.3782
 255       2.774e-01       3.739e-01      -1.422e-02           0.173          -0.000           0.985       6.752e-03          0.4838
 256       2.466e-01       3.739e-01      -9.011e-03           0.152          -0.000           0.988       8.643e-03          0.5962
 257       2.083e-01       3.739e-01      -3.424e-03           0.125          -0.000           0.992       9.819e-03          0.6932
 258       1.657e-01       3.738e-01       1.610e-03           0.095          -0.000           0.995       1.020e-02          0.7725
 259       1.222e-01       3.738e-01       5.446e-03           0.066          -0.000           0.998       9.761e-03          0.8582
 260       8.133e-02       3.738e-01       7.855e-03           0.036           0.000           0.999       8.545e-03          0.9797
 261       4.640e-02       3.737e-01       8.824e-03          -0.003           0.000           1.000       6.647e-03          1.1625
 262       2.026e-02       3.737e-01       8.515e-03          -0.055           0.000           0.998       4.223e-03          1.5463
 263       5.003e-03       3.738e-01       7.473e-03          -0.178           0.000           0.984       1.468e-03          2.4674
Strip 25
 264       3.075e-01       5.831e-01      -2.016e-02           0.212          -0.000           0.977       1.197e-03          0.2444
 265       2.983e-01       5.830e-01      -1.823e-02           0.197          -0.000           0.980       3.481e-03          0.3768
 266       2.774e-01       5.830e-01      -1.422e-02           0.173          -0.000           0.985       5.463e-03          0.4817
 267       2.466e-01       5.829e-01      -9.010e-03           0.152          -0.000           0.988       6.992e-03          0.5935
 268       2.083e-01       5.828e-01      -3.424e-03           0.125          -0.000           0.992       7.944e-03          0.6900
 269       1.657e-01       5.828e-01       1.610e-03           0.095          -0.000           0.995       8.250e-03          0.7689
 270       1.222e-01       5.827e-01       5.446e-03           0.066          -0.000           0.998       7.897e-03          0.8540
 271       8.133e-02       5.827e-01       7.855e-03           0.036           0.000           0.999       6.913e-03          0.9746
 272       4.640e-02       5.827e-01       8.824e-03          -0.003           0.000           1.000       5.378e-03          1.1556
 273       2.026e-02       5.827e-01       8.514e-03          -0.055           0.000           0.998       3.417e-03          1.5353
 274       5.003e-03       5.827e-01       7.473e-03          -0.178           0.000           0.984       1.188e-03          2.4416
Strip 26
 275       3.075e-01       7.123e-01      -2.016e-02           0.212          -0.000           0.977       4.571e-04          0.2423
 276       2.983e-01       7.122e-01      -1.823e-02           0.197          -0.000           0.980       1.330e-03          0.3733
 277       2.774e-01       7.122e-01      -1.422e-02           0.173          -0.000           0.985       2.087e-03          0.4773
 278       2.466e-01       7.121e-01      -9.009e-03           0.152          -0.000           0.988       2.671e-03          0.5887
 279       2.083e-01       7.120e-01      -3.423e-03           0.125          -0.000           0.992       3.034e-03          0.6853
 280       1.657e-01       7.119e-01       1.610e-03           0.095          -0.000           0.995       3.151e-03          0.7644
 281       1.222e-01       7.119e-01       5.446e-03           0.066          -0.000           0.998       3.016e-03          0.8495
 282       8.133e-02       7.118e-01       7.855e-03           0.036           0.000           0.999       2.640e-03          0.9697
 283       4.640e-02       7.118e-01       8.824e-03          -0.003           0.000           1.000       2.054e-03          1.1495
 284       2.026e-02       7.118e-01       8.514e-03          -0.055           0.000           0.998       1.305e-03          1.5255
 285       5.003e-03       7.118e-01       7.472e-03          -0.178           0.000           0.984       4.536e-04          2.4180
Strip 27
 286       3.068e-01       7.588e-01      -1.974e-02           0.212          -0.024           0.977       1.376e-04          0.2403
 287       2.976e-01       7.587e-01      -1.781e-02           0.197          -0.025           0.980       4.002e-04          0.3706
 288       2.767e-01       7.587e-01      -1.381e-02           0.173          -0.027           0.985       6.280e-04          0.4748
 289       2.460e-01       7.586e-01      -8.612e-03           0.152          -0.028           0.988       8.040e-04          0.5864
 290       2.078e-01       7.585e-01      -3.039e-03           0.125          -0.030           0.992       9.135e-04          0.6830
 291       1.653e-01       7.584e-01       1.982e-03           0.095          -0.031           0.995       9.489e-04          0.7619
 292       1.219e-01       7.583e-01       5.809e-03           0.066          -0.032           0.997       9.083e-04          0.8469
 293       8.113e-02       7.583e-01       8.211e-03           0.036          -0.032           0.999       7.951e-04          0.9669
 294       4.629e-02       7.583e-01       9.178e-03          -0.003          -0.033           0.999       6.186e-04          1.1464
 295       2.021e-02       7.583e-01       8.869e-03          -0.055          -0.033           0.998       3.930e-04          1.5215
 296       4.991e-03       7.583e-01       7.830e-03          -0.178          -0.033           0.984       1.366e-04          2.4086
Strip 28
 297       3.039e-01       8.014e-01      -1.806e-02           0.212          -0.024           0.977       4.035e-04          0.2424
 298       2.947e-01       8.014e-01      -1.615e-02           0.197          -0.025           0.980       1.174e-03          0.3733
 299       2.741e-01       8.013e-01      -1.218e-02           0.173          -0.027           0.985       1.842e-03          0.4771
 300       2.436e-01       8.012e-01      -7.038e-03           0.152          -0.028           0.988       2.358e-03          0.5882
 301       2.058e-01       8.011e-01      -1.518e-03           0.125          -0.030           0.992       2.680e-03          0.6844
 302       1.637e-01       8.010e-01       3.455e-03           0.095          -0.031           0.995       2.783e-03          0.7632
 303       1.207e-01       8.010e-01       7.245e-03           0.066          -0.032           0.997       2.664e-03          0.8481
 304       8.036e-02       8.009e-01       9.625e-03           0.036          -0.032           0.999       2.332e-03          0.9683
 305       4.585e-02       8.009e-01       1.058e-02          -0.003          -0.033           0.999       1.814e-03          1.1481
 306       2.002e-02       8.009e-01       1.028e-02          -0.055          -0.033           0.998       1.153e-03          1.5243
 307       4.944e-03       8.009e-01       9.247e-03          -0.178          -0.033           0.984       4.007e-04          2.4168
Strip 29
 308       2.981e-01       8.851e-01      -1.476e-02           0.212          -0.024           0.977       6.429e-04          0.2435
 309       2.892e-01       8.851e-01      -1.289e-02           0.197          -0.025           0.980       1.870e-03          0.3753
 310       2.689e-01       8.850e-01      -8.998e-03           0.173          -0.027           0.985       2.935e-03          0.4798
 311       2.390e-01       8.849e-01      -3.950e-03           0.152          -0.028           0.988       3.757e-03          0.5912
 312       2.019e-01       8.848e-01       1.465e-03           0.125          -0.030           0.992       4.269e-03          0.6875
 313       1.606e-01       8.847e-01       6.344e-03           0.095          -0.031           0.995       4.435e-03          0.7663
 314       1.185e-01       8.846e-01       1.006e-02           0.066          -0.032           0.997       4.245e-03          0.8514
 315       7.884e-02       8.846e-01       1.240e-02           0.036          -0.032           0.999       3.716e-03          0.9721
 316       4.499e-02       8.846e-01       1.334e-02          -0.003          -0.033           0.999       2.891e-03          1.1531
 317       1.964e-02       8.846e-01       1.304e-02          -0.055          -0.033           0.998       1.837e-03          1.5323
 318       4.850e-03       8.846e-01       1.203e-02          -0.178          -0.033           0.984       6.384e-04          2.4356
Strip 30
 319       2.898e-01       1.007e+00      -9.975e-03           0.212          -0.024           0.977       8.410e-04          0.2444
 320       2.811e-01       1.007e+00      -8.153e-03           0.197          -0.025           0.980       2.447e-03          0.3768
 321       2.614e-01       1.006e+00      -4.374e-03           0.173          -0.027           0.985       3.840e-03          0.4820
 322       2.323e-01       1.006e+00       5.324e-04           0.152          -0.028           0.988       4.915e-03          0.5940
 323       1.963e-01       1.006e+00       5.796e-03           0.125          -0.030           0.992       5.585e-03          0.6909
 324       1.561e-01       1.006e+00       1.054e-02           0.095          -0.031           0.995       5.801e-03          0.7702
 325       1.151e-01       1.006e+00       1.415e-02           0.066          -0.032           0.997       5.553e-03          0.8560
 326       7.663e-02       1.006e+00       1.642e-02           0.036          -0.032           0.999       4.861e-03          0.9776
 327       4.373e-02       1.006e+00       1.734e-02          -0.003          -0.033           0.999       3.782e-03          1.1605
 328       1.909e-02       1.006e+00       1.704e-02          -0.055          -0.033           0.998       2.403e-03          1.5440
 329       4.715e-03       1.006e+00       1.606e-02          -0.178          -0.033           0.984       8.352e-04          2.4631
Strip 31
 330       2.792e-01       1.161e+00      -3.885e-03           0.212          -0.024           0.977       9.873e-04          0.2451
 331       2.708e-01       1.161e+00      -2.130e-03           0.197          -0.025           0.980       2.872e-03          0.3781
 332       2.518e-01       1.161e+00       1.511e-03           0.173          -0.027           0.985       4.507e-03          0.4839
 333       2.238e-01       1.161e+00       6.238e-03           0.152          -0.028           0.988       5.770e-03          0.5966
 334       1.891e-01       1.161e+00       1.131e-02           0.125          -0.030           0.992       6.556e-03          0.6942
 335       1.504e-01       1.161e+00       1.588e-02           0.095          -0.031           0.995       6.810e-03          0.7742
 336       1.109e-01       1.161e+00       1.936e-02           0.066          -0.032           0.997       6.519e-03          0.8608
 337       7.383e-02       1.161e+00       2.155e-02           0.036          -0.032           0.999       5.707e-03          0.9838
 338       4.213e-02       1.161e+00       2.243e-02          -0.003          -0.033           0.999       4.439e-03          1.1688
 339       1.839e-02       1.161e+00       2.215e-02          -0.055          -0.033           0.998       2.821e-03          1.5574
 340       4.542e-03       1.161e+00       2.120e-02          -0.178          -0.033           0.984       9.804e-04          2.4944
Strip 32
 341       2.667e-01       1.343e+00       3.277e-03           0.212          -0.024           0.977       1.076e-03          0.2457
 342       2.587e-01       1.343e+00       4.953e-03           0.197          -0.025           0.980       3.131e-03          0.3791
 343       2.406e-01       1.343e+00       8.431e-03           0.173          -0.027           0.985       4.913e-03          0.4855
 344       2.138e-01       1.343e+00       1.295e-02           0.152          -0.028           0.988       6.289e-03          0.5988
 345       1.807e-01       1.343e+00       1.779e-02           0.125          -0.030           0.992       7.146e-03          0.6970
 346       1.437e-01       1.343e+00       2.216e-02           0.095          -0.031           0.995       7.422e-03          0.7778
 347       1.060e-01       1.343e+00       2.548e-02           0.066          -0.032           0.997       7.105e-03          0.8653
 348       7.053e-02       1.342e+00       2.757e-02           0.036          -0.032           0.999       6.220e-03          0.9895
 349       4.025e-02       1.342e+00       2.841e-02          -0.003          -0.033           0.999       4.839e-03          1.1767
 350       1.757e-02       1.342e+00       2.814e-02          -0.055          -0.033           0.998       3.074e-03          1.5702
 351       4.339e-03       1.343e+00       2.724e-02          -0.178          -0.033           0.984       1.069e-03          2.5244
Strip 33
 352       2.529e-01       1.545e+00       1.123e-02           0.212          -0.024           0.977       1.107e-03          0.2461
 353       2.452e-01       1.545e+00       1.282e-02           0.197          -0.025           0.980       3.221e-03          0.3799
 354       2.281e-01       1.545e+00       1.612e-02           0.173          -0.027           0.985       5.054e-03          0.4868
 355       2.027e-01       1.545e+00       2.040e-02           0.152          -0.028           0.988       6.469e-03          0.6006
 356       1.713e-01       1.545e+00       2.499e-02           0.125          -0.030           0.992       7.351e-03          0.6993
 357       1.362e-01       1.545e+00       2.913e-02           0.095          -0.031           0.995       7.635e-03          0.7807
 358       1.005e-01       1.545e+00       3.228e-02           0.066          -0.032           0.997       7.309e-03          0.8689
 359       6.687e-02       1.545e+00       3.427e-02           0.036          -0.032           0.999       6.398e-03          0.9942
 360       3.816e-02       1.544e+00       3.506e-02          -0.003          -0.033           0.999       4.978e-03          1.1832
 361       1.666e-02       1.544e+00       3.481e-02          -0.055          -0.033           0.998       3.162e-03          1.5807
 362       4.114e-03       1.545e+00       3.395e-02          -0.178          -0.033           0.984       1.099e-03          2.5491
Strip 34
 363       2.381e-01       1.759e+00       1.968e-02           0.212          -0.024           0.977       1.084e-03          0.2464
 364       2.310e-01       1.759e+00       2.118e-02           0.197          -0.025           0.980       3.155e-03          0.3804
 365       2.148e-01       1.759e+00       2.428e-02           0.173          -0.027           0.985       4.950e-03          0.4875
 366       1.909e-01       1.759e+00       2.831e-02           0.152          -0.028           0.988       6.337e-03          0.6016
 367       1.613e-01       1.759e+00       3.264e-02           0.125          -0.030           0.992       7.200e-03          0.7006
 368       1.283e-01       1.759e+00       3.654e-02           0.095          -0.031           0.995       7.479e-03          0.7824
 369       9.462e-02       1.759e+00       3.951e-02           0.066          -0.032           0.997       7.159e-03          0.8711
 370       6.298e-02       1.759e+00       4.137e-02           0.036          -0.032           0.999       6.267e-03          0.9970
 371       3.594e-02       1.759e+00       4.212e-02          -0.003          -0.033           0.999       4.875e-03          1.1871
 372       1.569e-02       1.759e+00       4.188e-02          -0.055          -0.033           0.998       3.097e-03          1.5872
 373       3.875e-03       1.759e+00       4.108e-02          -0.178          -0.033           0.984       1.077e-03          2.5644
Strip 35
 374       2.231e-01       1.978e+00       2.829e-02           0.212          -0.024           0.977       1.016e-03          0.2463
 375       2.164e-01       1.978e+00       2.970e-02           0.197          -0.025           0.980       2.956e-03          0.3804
 376       2.013e-01       1.978e+00       3.261e-02           0.173          -0.027           0.985       4.638e-03          0.4874
 377       1.789e-01       1.978e+00       3.638e-02           0.152          -0.028           0.988       5.938e-03          0.6015
 378       1.511e-01       1.978e+00       4.044e-02           0.125          -0.030           0.992       6.746e-03          0.7006
 379       1.202e-01       1.978e+00       4.409e-02           0.095          -0.031           0.995       7.008e-03          0.7823
 380       8.866e-02       1.978e+00       4.687e-02           0.066          -0.032           0.997       6.708e-03          0.8711
 381       5.901e-02       1.978e+00       4.862e-02           0.036          -0.032           0.999       5.872e-03          0.9970
 382       3.367e-02       1.978e+00       4.932e-02          -0.003          -0.033           0.999       4.568e-03          1.1872
 383       1.470e-02       1.978e+00       4.910e-02          -0.055          -0.033           0.998       2.902e-03          1.5873
 384       3.630e-03       1.978e+00       4.834e-02          -0.178          -0.033           0.984       1.009e-03          2.5648
Strip 36
 385       2.084e-01       2.193e+00       3.674e-02           0.212          -0.024           0.977       9.126e-04          0.2458
 386       2.022e-01       2.193e+00       3.805e-02           0.197          -0.025           0.980       2.655e-03          0.3795
 387       1.880e-01       2.192e+00       4.077e-02           0.173          -0.027           0.985       4.166e-03          0.4862
 388       1.671e-01       2.192e+00       4.430e-02           0.152          -0.028           0.988       5.333e-03          0.5998
 389       1.412e-01       2.192e+00       4.808e-02           0.125          -0.030           0.992       6.060e-03          0.6983
 390       1.123e-01       2.192e+00       5.149e-02           0.095          -0.031           0.995       6.294e-03          0.7795
 391       8.282e-02       2.192e+00       5.409e-02           0.066          -0.032           0.997       6.025e-03          0.8676
 392       5.512e-02       2.192e+00       5.572e-02           0.036          -0.032           0.999       5.274e-03          0.9925
 393       3.145e-02       2.192e+00       5.638e-02          -0.003          -0.033           0.999       4.103e-03          1.1810
 394       1.373e-02       2.192e+00       5.617e-02          -0.055          -0.033           0.998       2.607e-03          1.5774
 395       3.391e-03       2.192e+00       5.547e-02          -0.178          -0.033           0.984       9.061e-04          2.5416
Strip 37
 396       1.946e-01       2.395e+00       4.470e-02           0.212          -0.024           0.977       7.851e-04          0.2445
 397       1.887e-01       2.395e+00       4.592e-02           0.197          -0.025           0.980       2.284e-03          0.3772
 398       1.755e-01       2.394e+00       4.846e-02           0.173          -0.027           0.985       3.584e-03          0.4827
 399       1.560e-01       2.394e+00       5.175e-02           0.152          -0.028           0.988       4.588e-03          0.5951
 400       1.318e-01       2.394e+00       5.528e-02           0.125          -0.030           0.992       5.213e-03          0.6924
 401       1.048e-01       2.394e+00       5.847e-02           0.095          -0.031           0.995       5.415e-03          0.7721
 402       7.731e-02       2.394e+00       6.089e-02           0.066          -0.032           0.997       5.183e-03          0.8583
 403       5.146e-02       2.394e+00       6.242e-02           0.036          -0.032           0.999       4.538e-03          0.9806
 404       2.936e-02       2.394e+00       6.303e-02          -0.003          -0.033           0.999       3.530e-03          1.1646
 405       1.282e-02       2.394e+00       6.284e-02          -0.055          -0.033           0.998       2.243e-03          1.5508
 406       3.166e-03       2.394e+00       6.218e-02          -0.178          -0.033           0.984       7.796e-04          2.4796
Strip 38
 407       1.821e-01       2.576e+00       5.186e-02           0.212          -0.024           0.977       6.441e-04          0.2418
 408       1.766e-01       2.576e+00       5.300e-02           0.197          -0.025           0.980       1.874e-03          0.3723
 409       1.643e-01       2.576e+00       5.538e-02           0.173          -0.027           0.985       2.940e-03          0.4753
 410       1.460e-01       2.576e+00       5.846e-02           0.152          -0.028           0.988       3.764e-03          0.5851
 411       1.233e-01       2.576e+00       6.177e-02           0.125          -0.030           0.992       4.277e-03          0.6796
 412       9.812e-02       2.576e+00       6.475e-02           0.095          -0.031           0.995       4.442e-03          0.7562
 413       7.236e-02       2.576e+00       6.702e-02           0.066          -0.032           0.997       4.252e-03          0.8385
 414       4.816e-02       2.576e+00       6.844e-02           0.036          -0.032           0.999       3.722e-03          0.9554
 415       2.748e-02       2.576e+00       6.902e-02          -0.003          -0.033           0.999       2.896e-03          1.1301
 416       1.200e-02       2.576e+00       6.883e-02          -0.055          -0.033           0.998       1.840e-03          1.4953
 417       2.963e-03       2.576e+00       6.822e-02          -0.178          -0.033           0.984       6.395e-04          2.3507
Strip 39
 418       1.715e-01       2.731e+00       5.795e-02           0.212          -0.024           0.977       4.978e-04          0.2360
 419       1.663e-01       2.731e+00       5.903e-02           0.197          -0.025           0.980       1.448e-03          0.3621
 420       1.547e-01       2.731e+00       6.126e-02           0.173          -0.027           0.985       2.273e-03          0.4600
 421       1.375e-01       2.731e+00       6.416e-02           0.152          -0.028           0.988       2.909e-03          0.5645
 422       1.162e-01       2.731e+00       6.728e-02           0.125          -0.030           0.992       3.305e-03          0.6533
 423       9.240e-02       2.731e+00       7.008e-02           0.095          -0.031           0.995       3.433e-03          0.7239
 424       6.814e-02       2.731e+00       7.222e-02           0.066          -0.032           0.997       3.286e-03          0.7991
 425       4.535e-02       2.730e+00       7.357e-02           0.036          -0.032           0.999       2.877e-03          0.9061
 426       2.588e-02       2.730e+00       7.411e-02          -0.003          -0.033           0.999       2.238e-03          1.0636
 427       1.130e-02       2.730e+00       7.393e-02          -0.055          -0.033           0.998       1.422e-03          1.3895
 428       2.790e-03       2.730e+00       7.335e-02          -0.178          -0.033           0.984       4.943e-04          2.1061
Strip 40
 429       1.632e-01       2.852e+00       6.273e-02           0.212          -0.024           0.977       3.519e-04          0.2243
 430       1.583e-01       2.852e+00       6.376e-02           0.197          -0.025           0.980       1.024e-03          0.3412
 431       1.472e-01       2.852e+00       6.589e-02           0.173          -0.027           0.985       1.607e-03          0.4285
 432       1.308e-01       2.852e+00       6.865e-02           0.152          -0.028           0.988       2.057e-03          0.5221
 433       1.105e-01       2.852e+00       7.161e-02           0.125          -0.030           0.992       2.337e-03          0.6001
 434       8.791e-02       2.852e+00       7.428e-02           0.095          -0.031           0.995       2.427e-03          0.6597
 435       6.483e-02       2.852e+00       7.631e-02           0.066          -0.032           0.997       2.323e-03          0.7229
 436       4.315e-02       2.852e+00       7.759e-02           0.036          -0.032           0.999       2.034e-03          0.8136
 437       2.462e-02       2.852e+00       7.811e-02          -0.003          -0.033           0.999       1.582e-03          0.9428
 438       1.075e-02       2.852e+00       7.794e-02          -0.055          -0.033           0.998       1.005e-03          1.2015
 439       2.655e-03       2.852e+00       7.739e-02          -0.178          -0.033           0.984       3.494e-04          1.6758
Strip 41
 440       1.574e-01       2.936e+00       6.603e-02           0.212          -0.024           0.977       2.091e-04          0.2012
 441       1.527e-01       2.936e+00       6.702e-02           0.197          -0.025           0.980       6.084e-04          0.2993
 442       1.420e-01       2.936e+00       6.907e-02           0.173          -0.027           0.985       9.546e-04          0.3646
 443       1.262e-01       2.936e+00       7.173e-02           0.152          -0.028           0.988       1.222e-03          0.4359
 444       1.066e-01       2.936e+00       7.459e-02           0.125          -0.030           0.992       1.388e-03          0.4931
 445       8.482e-02       2.936e+00       7.717e-02           0.095          -0.031           0.995       1.442e-03          0.5348
 446       6.255e-02       2.936e+00       7.913e-02           0.066          -0.032           0.997       1.380e-03          0.5818
 447       4.163e-02       2.936e+00       8.036e-02           0.036          -0.032           0.999       1.208e-03          0.6529
 448       2.376e-02       2.936e+00       8.086e-02          -0.003          -0.033           0.999       9.401e-04          0.7457
 449       1.037e-02       2.936e+00       8.070e-02          -0.055          -0.033           0.998       5.973e-04          0.9092
 450       2.561e-03       2.936e+00       8.017e-02          -0.178          -0.033           0.984       2.076e-04          1.0204
Strip 42
 451       1.545e-01       2.979e+00       6.771e-02           0.212          -0.024           0.977       6.929e-05          0.1614
 452       1.499e-01       2.979e+00       6.868e-02           0.197          -0.025           0.980       2.016e-04          0.2208
 453       1.394e-01       2.979e+00       7.069e-02           0.173          -0.027           0.985       3.163e-04          0.2460
 454       1.239e-01       2.979e+00       7.331e-02           0.152          -0.028           0.988       4.049e-04          0.2830
 455       1.046e-01       2.978e+00       7.611e-02           0.125          -0.030           0.992       4.601e-04          0.3132
 456       8.324e-02       2.978e+00       7.864e-02           0.095          -0.031           0.995       4.779e-04          0.3339
 457       6.139e-02       2.978e+00       8.057e-02           0.066          -0.032           0.997       4.574e-04          0.3623
 458       4.086e-02       2.978e+00       8.178e-02           0.036          -0.032           0.999       4.004e-04          0.4155
 459       2.331e-02       2.978e+00       8.226e-02          -0.003          -0.033           0.999       3.115e-04          0.4860
 460       1.018e-02       2.978e+00       8.211e-02          -0.055          -0.033           0.998       1.979e-04          0.5758
 461       2.514e-03       2.978e+00       8.159e-02          -0.178          -0.033           0.984       6.880e-05          0.3241




Horizontal StabilizerCp Coefficients
Strip 1
   0       1.117e+00      -7.457e-01       4.013e-01          -0.015           0.000           1.000       9.633e-06         -0.0040
   1       1.113e+00      -7.457e-01       4.013e-01          -0.015           0.000           1.000       2.812e-05         -0.0065
   2       1.104e+00      -7.457e-01       4.011e-01          -0.015           0.000           1.000       4.433e-05         -0.0095
   3       1.092e+00      -7.457e-01       4.009e-01          -0.015           0.000           1.000       5.694e-05         -0.0132
   4       1.076e+00      -7.457e-01       4.007e-01          -0.015           0.000           1.000       6.495e-05         -0.0180
   5       1.059e+00      -7.457e-01       4.004e-01          -0.015           0.000           1.000       6.769e-05         -0.0246
   6       1.042e+00      -7.457e-01       4.002e-01          -0.015           0.000           1.000       6.495e-05         -0.0348
   7       1.025e+00      -7.457e-01       3.999e-01          -0.015           0.000           1.000       5.694e-05         -0.0522
   8       1.011e+00      -7.457e-01       3.997e-01          -0.015           0.000           1.000       4.433e-05         -0.0870
   9       1.000e+00      -7.457e-01       3.995e-01          -0.015           0.000           1.000       2.812e-05         -0.1807
  10       9.942e-01      -7.457e-01       3.994e-01          -0.015           0.000           1.000       9.633e-06         -0.5660
Strip 2
  11       1.117e+00      -7.382e-01       4.013e-01          -0.015           0.000           1.000       2.870e-05         -0.0063
  12       1.113e+00      -7.382e-01       4.013e-01          -0.015           0.000           1.000       8.378e-05         -0.0110
  13       1.104e+00      -7.382e-01       4.011e-01          -0.015           0.000           1.000       1.321e-04         -0.0165
  14       1.092e+00      -7.382e-01       4.009e-01          -0.015           0.000           1.000       1.697e-04         -0.0231
  15       1.076e+00      -7.382e-01       4.007e-01          -0.015           0.000           1.000       1.935e-04         -0.0316
  16       1.059e+00      -7.382e-01       4.004e-01          -0.015           0.000           1.000       2.017e-04         -0.0435
  17       1.042e+00      -7.382e-01       4.002e-01          -0.015           0.000           1.000       1.935e-04         -0.0619
  18       1.025e+00      -7.382e-01       3.999e-01          -0.015           0.000           1.000       1.697e-04         -0.0937
  19       1.011e+00      -7.382e-01       3.997e-01          -0.015           0.000           1.000       1.321e-04         -0.1582
[...]
  93       1.063e+00      -4.356e-16       2.696e-01           0.000           1.000           0.000       6.612e-04          0.0000
  94       1.039e+00      -4.356e-16       2.696e-01           0.000           1.000           0.000       6.344e-04          0.0000
  95       1.016e+00      -4.356e-16       2.696e-01           0.000           1.000           0.000       5.562e-04          0.0000
  96       9.959e-01      -4.356e-16       2.696e-01           0.000           1.000           0.000       4.330e-04          0.0000
  97       9.812e-01      -4.356e-16       2.696e-01           0.000           1.000           0.000       2.747e-04          0.0000
  98       9.726e-01      -4.356e-16       2.696e-01           0.000           1.000           0.000       9.410e-05          0.0000
Strip 10
  99       1.148e+00      -3.915e-16       2.423e-01           0.000           1.000           0.000       1.039e-04          0.0000
 100       1.143e+00      -3.915e-16       2.423e-01           0.000           1.000           0.000       3.033e-04          0.0000
 101       1.130e+00      -3.915e-16       2.423e-01           0.000           1.000           0.000       4.782e-04          0.0000
 102       1.112e+00      -3.915e-16       2.423e-01           0.000           1.000           0.000       6.143e-04          0.0000
 103       1.089e+00      -3.915e-16       2.423e-01           0.000           1.000           0.000       7.006e-04          0.0000
 104       1.064e+00      -3.915e-16       2.423e-01           0.000           1.000           0.000       7.302e-04          0.0000
 105       1.038e+00      -3.915e-16       2.423e-01           0.000           1.000           0.000       7.006e-04          0.0000
 106       1.014e+00      -3.915e-16       2.423e-01           0.000           1.000           0.000       6.143e-04          0.0000
 107       9.927e-01      -3.915e-16       2.423e-01           0.000           1.000           0.000       4.782e-04          0.0000
 108       9.771e-01      -3.915e-16       2.423e-01           0.000           1.000           0.000       3.033e-04          0.0000
 109       9.680e-01      -3.915e-16       2.423e-01           0.000           1.000           0.000       1.039e-04          0.0000
Strip 11
 110       1.154e+00      -3.460e-16       2.142e-01           0.000           1.000           0.000       1.122e-04          0.0000
 111       1.148e+00      -3.460e-16       2.142e-01           0.000           1.000           0.000       3.274e-04          0.0000
 112       1.135e+00      -3.460e-16       2.142e-01           0.000           1.000           0.000       5.161e-04          0.0000
 113       1.116e+00      -3.460e-16       2.142e-01           0.000           1.000           0.000       6.630e-04          0.0000
 114       1.091e+00      -3.460e-16       2.142e-01           0.000           1.000           0.000       7.562e-04          0.0000
 115       1.065e+00      -3.460e-16       2.142e-01           0.000           1.000           0.000       7.881e-04          0.0000
 116       1.037e+00      -3.460e-16       2.142e-01           0.000           1.000           0.000       7.562e-04          0.0000
 117       1.011e+00      -3.460e-16       2.142e-01           0.000           1.000           0.000       6.630e-04          0.0000
 118       9.894e-01      -3.460e-16       2.142e-01           0.000           1.000           0.000       5.161e-04          0.0000
 119       9.730e-01      -3.460e-16       2.142e-01           0.000           1.000           0.000       3.274e-04          0.0000
 120       9.633e-01      -3.460e-16       2.142e-01           0.000           1.000           0.000       1.122e-04          0.0000
Strip 12
 121       1.160e+00      -3.000e-16       1.857e-01           0.000           1.000           0.000       1.183e-04          0.0000
 122       1.154e+00      -3.000e-16       1.857e-01           0.000           1.000           0.000       3.453e-04          0.0000
 123       1.140e+00      -3.000e-16       1.857e-01           0.000           1.000           0.000       5.444e-04          0.0000
 124       1.119e+00      -3.000e-16       1.857e-01           0.000           1.000           0.000       6.993e-04          0.0000
 125       1.094e+00      -3.000e-16       1.857e-01           0.000           1.000           0.000       7.976e-04          0.0000
 126       1.065e+00      -3.000e-16       1.857e-01           0.000           1.000           0.000       8.313e-04          0.0000
 127       1.037e+00      -3.000e-16       1.857e-01           0.000           1.000           0.000       7.976e-04          0.0000
 128       1.009e+00      -3.000e-16       1.857e-01           0.000           1.000           0.000       6.993e-04          0.0000
 129       9.861e-01      -3.000e-16       1.857e-01           0.000           1.000           0.000       5.444e-04          0.0000
 130       9.688e-01      -3.000e-16       1.857e-01           0.000           1.000           0.000       3.453e-04          0.0000
 131       9.586e-01      -3.000e-16       1.857e-01           0.000           1.000           0.000       1.183e-04          0.0000
Strip 13
 132       1.165e+00      -2.545e-16       1.576e-01           0.000           1.000           0.000       1.219e-04          0.0000
 133       1.159e+00      -2.545e-16       1.576e-01           0.000           1.000           0.000       3.557e-04          0.0000
 134       1.144e+00      -2.545e-16       1.576e-01           0.000           1.000           0.000       5.607e-04          0.0000
 135       1.123e+00      -2.545e-16       1.576e-01           0.000           1.000           0.000       7.203e-04          0.0000
 136       1.096e+00      -2.545e-16       1.576e-01           0.000           1.000           0.000       8.216e-04          0.0000
 137       1.066e+00      -2.545e-16       1.576e-01           0.000           1.000           0.000       8.562e-04          0.0000
 138       1.036e+00      -2.545e-16       1.576e-01           0.000           1.000           0.000       8.216e-04          0.0000
 139       1.007e+00      -2.545e-16       1.576e-01           0.000           1.000           0.000       7.203e-04          0.0000
 140       9.829e-01      -2.545e-16       1.576e-01           0.000           1.000           0.000       5.607e-04          0.0000
 141       9.646e-01      -2.545e-16       1.576e-01           0.000           1.000           0.000       3.557e-04          0.0000
 142       9.539e-01      -2.545e-16       1.576e-01           0.000           1.000           0.000       1.219e-04          0.0000
Strip 14
 143       1.171e+00      -2.104e-16       1.302e-01           0.000           1.000           0.000       1.224e-04          0.0000
 144       1.164e+00      -2.104e-16       1.302e-01           0.000           1.000           0.000       3.572e-04          0.0000
 145       1.149e+00      -2.104e-16       1.302e-01           0.000           1.000           0.000       5.632e-04          0.0000
 146       1.126e+00      -2.104e-16       1.302e-01           0.000           1.000           0.000       7.234e-04          0.0000
 147       1.098e+00      -2.104e-16       1.302e-01           0.000           1.000           0.000       8.251e-04          0.0000
 148       1.067e+00      -2.104e-16       1.302e-01           0.000           1.000           0.000       8.600e-04          0.0000
 149       1.035e+00      -2.104e-16       1.302e-01           0.000           1.000           0.000       8.251e-04          0.0000
 150       1.005e+00      -2.104e-16       1.302e-01           0.000           1.000           0.000       7.234e-04          0.0000
 151       9.797e-01      -2.104e-16       1.302e-01           0.000           1.000           0.000       5.632e-04          0.0000
 152       9.606e-01      -2.104e-16       1.302e-01           0.000           1.000           0.000       3.572e-04          0.0000
 153       9.494e-01      -2.104e-16       1.302e-01           0.000           1.000           0.000       1.224e-04          0.0000
Strip 15
 154       1.176e+00      -1.686e-16       1.044e-01           0.000           1.000           0.000       1.196e-04          0.0000
 155       1.169e+00      -1.686e-16       1.044e-01           0.000           1.000           0.000       3.490e-04          0.0000
 156       1.153e+00      -1.686e-16       1.044e-01           0.000           1.000           0.000       5.502e-04          0.0000
 157       1.130e+00      -1.686e-16       1.044e-01           0.000           1.000           0.000       7.068e-04          0.0000
 158       1.100e+00      -1.686e-16       1.044e-01           0.000           1.000           0.000       8.061e-04          0.0000
 159       1.068e+00      -1.686e-16       1.044e-01           0.000           1.000           0.000       8.401e-04          0.0000
 160       1.035e+00      -1.686e-16       1.044e-01           0.000           1.000           0.000       8.061e-04          0.0000
 161       1.003e+00      -1.686e-16       1.044e-01           0.000           1.000           0.000       7.068e-04          0.0000
 162       9.767e-01      -1.686e-16       1.044e-01           0.000           1.000           0.000       5.502e-04          0.0000
 163       9.568e-01      -1.686e-16       1.044e-01           0.000           1.000           0.000       3.490e-04          0.0000
 164       9.451e-01      -1.686e-16       1.044e-01           0.000           1.000           0.000       1.196e-04          0.0000
Strip 16
 165       1.181e+00      -1.299e-16       8.043e-02           0.000           1.000           0.000       1.132e-04          0.0000
 166       1.174e+00      -1.299e-16       8.043e-02           0.000           1.000           0.000       3.304e-04          0.0000
 167       1.157e+00      -1.299e-16       8.043e-02           0.000           1.000           0.000       5.209e-04          0.0000
 168       1.133e+00      -1.299e-16       8.043e-02           0.000           1.000           0.000       6.692e-04          0.0000
 169       1.102e+00      -1.299e-16       8.043e-02           0.000           1.000           0.000       7.632e-04          0.0000
 170       1.068e+00      -1.299e-16       8.043e-02           0.000           1.000           0.000       7.955e-04          0.0000
 171       1.034e+00      -1.299e-16       8.043e-02           0.000           1.000           0.000       7.632e-04          0.0000
 172       1.002e+00      -1.299e-16       8.043e-02           0.000           1.000           0.000       6.692e-04          0.0000
 173       9.739e-01      -1.299e-16       8.043e-02           0.000           1.000           0.000       5.209e-04          0.0000
 174       9.532e-01      -1.299e-16       8.043e-02           0.000           1.000           0.000       3.304e-04          0.0000
 175       9.411e-01      -1.299e-16       8.043e-02           0.000           1.000           0.000       1.132e-04          0.0000
Strip 17
 176       1.185e+00      -9.519e-17       5.892e-02           0.000           1.000           0.000       1.033e-04          0.0000
 177       1.178e+00      -9.519e-17       5.892e-02           0.000           1.000           0.000       3.015e-04          0.0000
 178       1.161e+00      -9.519e-17       5.892e-02           0.000           1.000           0.000       4.753e-04          0.0000
 179       1.135e+00      -9.519e-17       5.892e-02           0.000           1.000           0.000       6.105e-04          0.0000
 180       1.104e+00      -9.519e-17       5.892e-02           0.000           1.000           0.000       6.964e-04          0.0000
 181       1.069e+00      -9.519e-17       5.892e-02           0.000           1.000           0.000       7.258e-04          0.0000
 182       1.033e+00      -9.519e-17       5.892e-02           0.000           1.000           0.000       6.964e-04          0.0000
 183       1.000e+00      -9.519e-17       5.892e-02           0.000           1.000           0.000       6.105e-04          0.0000
 184       9.714e-01      -9.519e-17       5.892e-02           0.000           1.000           0.000       4.753e-04          0.0000
 185       9.500e-01      -9.519e-17       5.892e-02           0.000           1.000           0.000       3.015e-04          0.0000
 186       9.376e-01      -9.519e-17       5.892e-02           0.000           1.000           0.000       1.033e-04          0.0000
Strip 18
 187       1.189e+00      -6.509e-17       4.029e-02           0.000           1.000           0.000       8.995e-05          0.0000
 188       1.181e+00      -6.509e-17       4.029e-02           0.000           1.000           0.000       2.626e-04          0.0000
 189       1.164e+00      -6.509e-17       4.029e-02           0.000           1.000           0.000       4.139e-04          0.0000
 190       1.138e+00      -6.509e-17       4.029e-02           0.000           1.000           0.000       5.317e-04          0.0000
 191       1.105e+00      -6.509e-17       4.029e-02           0.000           1.000           0.000       6.065e-04          0.0000
 192       1.070e+00      -6.509e-17       4.029e-02           0.000           1.000           0.000       6.321e-04          0.0000
 193       1.033e+00      -6.509e-17       4.029e-02           0.000           1.000           0.000       6.065e-04          0.0000
 194       9.987e-01      -6.509e-17       4.029e-02           0.000           1.000           0.000       5.317e-04          0.0000
 195       9.693e-01      -6.509e-17       4.029e-02           0.000           1.000           0.000       4.139e-04          0.0000
 196       9.473e-01      -6.509e-17       4.029e-02           0.000           1.000           0.000       2.626e-04          0.0000
 197       9.345e-01      -6.509e-17       4.029e-02           0.000           1.000           0.000       8.995e-05          0.0000
Strip 19
 198       1.192e+00      -4.023e-17       2.490e-02           0.000           1.000           0.000       7.353e-05          0.0000
 199       1.184e+00      -4.023e-17       2.490e-02           0.000           1.000           0.000       2.146e-04          0.0000
 200       1.166e+00      -4.023e-17       2.490e-02           0.000           1.000           0.000       3.384e-04          0.0000
 201       1.140e+00      -4.023e-17       2.490e-02           0.000           1.000           0.000       4.347e-04          0.0000
 202       1.107e+00      -4.023e-17       2.490e-02           0.000           1.000           0.000       4.958e-04          0.0000
 203       1.070e+00      -4.023e-17       2.490e-02           0.000           1.000           0.000       5.167e-04          0.0000
 204       1.033e+00      -4.023e-17       2.490e-02           0.000           1.000           0.000       4.958e-04          0.0000
 205       9.975e-01      -4.023e-17       2.490e-02           0.000           1.000           0.000       4.347e-04          0.0000
 206       9.675e-01      -4.023e-17       2.490e-02           0.000           1.000           0.000       3.384e-04          0.0000
 207       9.450e-01      -4.023e-17       2.490e-02           0.000           1.000           0.000       2.146e-04          0.0000
 208       9.319e-01      -4.023e-17       2.490e-02           0.000           1.000           0.000       7.353e-05          0.0000
Strip 20
 209       1.194e+00      -2.114e-17       1.308e-02           0.000           1.000           0.000       5.451e-05          0.0000
 210       1.186e+00      -2.114e-17       1.308e-02           0.000           1.000           0.000       1.591e-04          0.0000
 211       1.168e+00      -2.114e-17       1.308e-02           0.000           1.000           0.000       2.508e-04          0.0000
 212       1.141e+00      -2.114e-17       1.308e-02           0.000           1.000           0.000       3.222e-04          0.0000
 213       1.108e+00      -2.114e-17       1.308e-02           0.000           1.000           0.000       3.675e-04          0.0000
 214       1.070e+00      -2.114e-17       1.308e-02           0.000           1.000           0.000       3.831e-04          0.0000
 215       1.032e+00      -2.114e-17       1.308e-02           0.000           1.000           0.000       3.675e-04          0.0000
 216       9.967e-01      -2.114e-17       1.308e-02           0.000           1.000           0.000       3.222e-04          0.0000
 217       9.661e-01      -2.114e-17       1.308e-02           0.000           1.000           0.000       2.508e-04          0.0000
 218       9.433e-01      -2.114e-17       1.308e-02           0.000           1.000           0.000       1.591e-04          0.0000
 219       9.299e-01      -2.114e-17       1.308e-02           0.000           1.000           0.000       5.451e-05          0.0000
Strip 21
 220       1.196e+00      -8.186e-18       5.067e-03           0.000           1.000           0.000       3.353e-05          0.0000
 221       1.188e+00      -8.186e-18       5.067e-03           0.000           1.000           0.000       9.787e-05          0.0000
 222       1.169e+00      -8.186e-18       5.067e-03           0.000           1.000           0.000       1.543e-04          0.0000
 223       1.142e+00      -8.186e-18       5.067e-03           0.000           1.000           0.000       1.982e-04          0.0000
 224       1.108e+00      -8.186e-18       5.067e-03           0.000           1.000           0.000       2.260e-04          0.0000
 225       1.071e+00      -8.186e-18       5.067e-03           0.000           1.000           0.000       2.356e-04          0.0000
 226       1.032e+00      -8.186e-18       5.067e-03           0.000           1.000           0.000       2.260e-04          0.0000
 227       9.961e-01      -8.186e-18       5.067e-03           0.000           1.000           0.000       1.982e-04          0.0000
 228       9.652e-01      -8.186e-18       5.067e-03           0.000           1.000           0.000       1.543e-04          0.0000
 229       9.421e-01      -8.186e-18       5.067e-03           0.000           1.000           0.000       9.787e-05          0.0000
 230       9.286e-01      -8.186e-18       5.067e-03           0.000           1.000           0.000       3.353e-05          0.0000
Strip 22
 231       1.197e+00      -1.644e-18       1.018e-03           0.000           1.000           0.000       1.131e-05          0.0000
 232       1.189e+00      -1.644e-18       1.018e-03           0.000           1.000           0.000       3.303e-05          0.0000
 233       1.170e+00      -1.644e-18       1.018e-03           0.000           1.000           0.000       5.207e-05          0.0000
 234       1.143e+00      -1.644e-18       1.018e-03           0.000           1.000           0.000       6.689e-05          0.0000
 235       1.109e+00      -1.644e-18       1.018e-03           0.000           1.000           0.000       7.629e-05          0.0000
 236       1.071e+00      -1.644e-18       1.018e-03           0.000           1.000           0.000       7.951e-05          0.0000
 237       1.032e+00      -1.644e-18       1.018e-03           0.000           1.000           0.000       7.629e-05          0.0000
 238       9.958e-01      -1.644e-18       1.018e-03           0.000           1.000           0.000       6.689e-05          0.0000
 239       9.647e-01      -1.644e-18       1.018e-03           0.000           1.000           0.000       5.207e-05          0.0000
 240       9.415e-01      -1.644e-18       1.018e-03           0.000           1.000           0.000       3.303e-05          0.0000
 241       9.279e-01      -1.644e-18       1.018e-03           0.000           1.000           0.000       1.131e-05          0.0000




